19
Iteration:  1778charge 0 multiplicity 1
 C         2.738317         1.273260        -0.271779
 C         1.760008         0.080153         0.040401
 C         0.621759        -0.435228        -0.902926
 C         0.265141        -1.199473         0.358852
 C         0.624460         0.101941         1.262546
 O         1.035484        -0.156817         2.565911
 C         1.831582        -1.343461         2.710541
 O         2.641562        -1.608081         1.656795
 C         1.860958        -1.374647         0.446818
 H         3.434981         1.440724         0.523013
 H         3.348647         1.332164        -1.193829
 H         2.269766         2.340917        -0.167411
 H        -0.067096         0.286548        -1.206037
 H         0.959553        -1.082280        -1.723695
 H        -0.556460        -1.987928         0.560601
 H         0.189165         1.092138         1.216457
 H         2.405966        -1.146644         3.678518
 H         1.123210        -2.153442         2.813420
 H         2.066754        -2.103895        -0.301943
