19
Iteration:  1273charge 0 multiplicity 1
 C         2.670803         1.299166        -0.268033
 C         1.681063         0.141825        -0.060642
 C         0.553798        -0.425530        -0.912334
 C         0.400401        -1.188649         0.378353
 C         0.660611         0.125466         1.198630
 O         1.106922        -0.099672         2.565790
 C         1.841075        -1.359230         2.827367
 O         2.558015        -1.687814         1.685607
 C         1.933171        -1.394755         0.460128
 H         2.984210         1.712649         0.744782
 H         3.618345         1.050491        -0.778644
 H         2.129117         2.083314        -0.796081
 H        -0.305433         0.170213        -1.303752
 H         0.889185        -1.015661        -1.778465
 H        -0.226803        -2.100831         0.422628
 H        -0.229491         0.698723         1.189473
 H         2.624842        -1.195331         3.613121
 H         1.101010        -2.193698         3.002268
 H         2.320598        -1.973971        -0.321592
