19
Iteration:   901
 C         2.666552         1.219383        -0.235280
 C         1.689100         0.141513        -0.016928
 C         0.554442        -0.482198        -0.886417
 C         0.264897        -1.205194         0.383770
 C         0.722033         0.131740         1.167752
 O         1.071431        -0.082839         2.656847
 C         1.790226        -1.289283         2.778270
 O         2.594629        -1.671035         1.634233
 C         2.056501        -1.411178         0.370457
 H         3.032082         1.476536         0.772588
 H         3.508596         0.947545        -0.900546
 H         2.107330         2.019867        -0.688407
 H        -0.091983         0.298222        -1.324810
 H         0.978453        -0.986378        -1.698925
 H        -0.575535        -1.761036         0.630026
 H        -0.016362         0.934415         1.211575
 H         2.441319        -1.060630         3.640384
 H         0.987716        -1.982071         2.937668
 H         2.482428        -2.069821        -0.478769
