19
Iteration:  3809
 C         2.762710         1.159105        -0.124526
 C         1.717098         0.096505         0.018764
 C         0.642106        -0.344658        -0.863408
 C         0.360703        -1.275308         0.369345
 C         0.580808         0.085370         1.195094
 O         0.999453        -0.050289         2.478818
 C         1.791664        -1.260952         2.734224
 O         2.673547        -1.591554         1.654780
 C         1.877426        -1.473724         0.434500
 H         3.559425         1.269504         0.693571
 H         3.256488         0.758499        -1.068904
 H         2.288500         2.122666        -0.305951
 H        -0.276900         0.315980        -1.135085
 H         0.922483        -0.755243        -1.818316
 H        -0.339723        -2.055100         0.656622
 H        -0.202797         0.928511         1.047358
 H         2.286373        -0.993877         3.724530
 H         0.991265        -2.075902         2.793782
 H         2.392654        -2.065289        -0.398500
