19
Iteration:  3937charge 0 multiplicity 1
 C         2.624067         1.250367        -0.102196
 C         1.695890         0.177271         0.055555
 C         0.676202        -0.486442        -0.936742
 C         0.492488        -1.239357         0.476938
 C         0.637588         0.110660         1.139992
 O         1.129896         0.028347         2.412177
 C         1.723290        -1.273768         2.762223
 O         2.472924        -1.784763         1.672504
 C         1.994450        -1.412784         0.439762
 H         3.448190         1.155820         0.641521
 H         3.165994         1.393476        -1.021162
 H         2.192769         2.291979        -0.033831
 H        -0.282922         0.124727        -1.067981
 H         0.984888        -1.028605        -1.850976
 H        -0.344373        -1.963841         0.521967
 H        -0.132519         0.796853         0.751962
 H         2.282748        -1.163931         3.732500
 H         0.932614        -2.084809         2.854074
 H         2.416235        -1.916850        -0.414948
