19
Iteration:  4303
 C         2.851734         1.281039        -0.151195
 C         1.733748         0.168503         0.013542
 C         0.545649        -0.467605        -0.913580
 C         0.428243        -1.327540         0.317243
 C         0.628520         0.077464         1.098754
 O         1.054686         0.078348         2.469096
 C         1.662690        -1.252308         2.683478
 O         2.548497        -1.754011         1.800041
 C         1.977964        -1.446985         0.501289
 H         3.402678         1.367303         0.776444
 H         3.506344         1.044870        -0.960885
 H         2.350481         2.251802        -0.193836
 H        -0.234820         0.233647        -0.995394
 H         0.742604        -1.026188        -1.852801
 H        -0.261007        -2.149839         0.581843
 H        -0.223155         0.818489         0.971673
 H         2.214261        -1.153454         3.659471
 H         0.826455        -1.964948         2.858916
 H         2.517833        -1.985971        -0.252212
