19
Iteration:  2278charge 0 multiplicity 1
 C         2.646567         1.159275        -0.123248
 C         1.640583         0.135751         0.083971
 C         0.650223        -0.346325        -0.862847
 C         0.419946        -1.298735         0.379099
 C         0.587452         0.058133         1.168210
 O         1.093583         0.020409         2.538900
 C         1.828052        -1.276891         2.681408
 O         2.542048        -1.756925         1.599281
 C         1.979905        -1.341879         0.408630
 H         3.092621         1.462404         0.808999
 H         3.496581         0.918697        -0.751530
 H         2.204918         2.094334        -0.548112
 H        -0.091187         0.324691        -1.021517
 H         0.999522        -0.885036        -1.756534
 H        -0.349653        -1.996449         0.375818
 H        -0.232190         0.770573         1.192964
 H         2.464668        -1.127367         3.501979
 H         1.029623        -1.989125         3.037445
 H         2.615189        -1.847459        -0.380306
