19
Iteration:  1473charge 0 multiplicity 1
 C         2.641517         1.187593        -0.202696
 C         1.734231         0.060063        -0.004009
 C         0.542939        -0.358052        -0.942008
 C         0.268040        -1.171396         0.401547
 C         0.671394         0.122325         1.201350
 O         1.034027        -0.085668         2.626838
 C         1.783854        -1.356972         2.700842
 O         2.733794        -1.548325         1.641927
 C         1.973691        -1.471679         0.480538
 H         2.968315         1.472751         0.790458
 H         3.459497         0.796377        -0.853761
 H         2.186590         2.089740        -0.777109
 H        -0.311955         0.284122        -1.197696
 H         0.927939        -0.935411        -1.898137
 H        -0.388761        -2.048741         0.545919
 H         0.102617         1.055058         1.095354
 H         2.324197        -1.461620         3.618081
 H         1.117075        -2.166088         2.601169
 H         2.379526        -2.065440        -0.350352
