19
Iteration:   462charge 0 multiplicity 1
 C         2.712734         1.132632        -0.020482
 C         1.632459         0.112265         0.011338
 C         0.518129        -0.530334        -0.890046
 C         0.381331        -1.253522         0.539979
 C         0.639550         0.124991         1.121389
 O         1.180083         0.022340         2.513473
 C         1.769701        -1.255051         2.667421
 O         2.617736        -1.552337         1.560767
 C         1.911798        -1.440365         0.351788
 H         3.177180         0.936666         0.964394
 H         3.539876         0.922897        -0.704635
 H         2.470910         2.210822         0.088858
 H        -0.243703         0.152711        -1.277878
 H         0.903201        -1.170423        -1.708736
 H        -0.286793        -2.027979         0.783147
 H        -0.130693         0.962027         1.108938
 H         2.190618        -1.251709         3.645911
 H         0.917724        -1.943634         2.513457
 H         2.345902        -1.976393        -0.489425
