19
Iteration:  1031charge 0 multiplicity 1
 C         2.723976         1.198429        -0.190861
 C         1.678265         0.144194         0.105686
 C         0.562754        -0.355308        -0.913561
 C         0.364703        -1.262614         0.349429
 C         0.619123         0.023307         1.195187
 O         1.126548        -0.091388         2.508903
 C         1.827220        -1.224431         2.820881
 O         2.582643        -1.603133         1.619404
 C         1.862825        -1.449740         0.388102
 H         3.475624         1.359566         0.588414
 H         3.223049         0.849732        -1.153154
 H         2.400675         2.175343        -0.465911
 H        -0.286974         0.349334        -1.213810
 H         1.073083        -0.841030        -1.743002
 H        -0.452942        -1.982389         0.634242
 H        -0.294263         0.559997         1.282358
 H         2.646722        -1.023581         3.545415
 H         1.301910        -2.052121         3.211458
 H         2.332342        -2.151579        -0.304112
