19
Iteration:  2877
 C         2.741540         1.280659        -0.269579
 C         1.685570         0.071344         0.115694
 C         0.650966        -0.361346        -0.835701
 C         0.360246        -1.251033         0.413884
 C         0.579984         0.118786         1.173394
 O         1.097169        -0.042715         2.470950
 C         1.701720        -1.414812         2.682089
 O         2.618946        -1.693329         1.669031
 C         1.989524        -1.374513         0.482178
 H         3.218074         1.718667         0.652884
 H         3.449166         0.980028        -0.956536
 H         2.088064         2.100736        -0.673662
 H        -0.141444         0.346340        -0.843266
 H         0.982944        -0.784211        -1.844076
 H        -0.386251        -2.007387         0.388671
 H        -0.214582         0.887624         1.220432
 H         2.219682        -1.299153         3.636674
 H         0.784386        -2.039414         2.842710
 H         2.466995        -1.944254        -0.311825
