19
Iteration:  3266charge 0 multiplicity 1
 C         2.658529         1.341134        -0.123702
 C         1.763020         0.130575        -0.066967
 C         0.571878        -0.414632        -0.933471
 C         0.342715        -1.188127         0.420438
 C         0.708439         0.098239         1.228508
 O         1.137084        -0.007436         2.443630
 C         1.740988        -1.371016         2.734479
 O         2.555263        -1.756986         1.669524
 C         1.956243        -1.465707         0.454531
 H         3.186316         1.360827         0.898371
 H         3.455898         1.475522        -0.833224
 H         2.105751         2.235884        -0.151367
 H        -0.299920         0.196214        -1.319821
 H         0.787383        -1.230494        -1.573001
 H        -0.398833        -1.929566         0.676081
 H        -0.029119         0.974087         1.065326
 H         2.349751        -1.218944         3.652136
 H         0.885421        -2.123921         3.000176
 H         2.417229        -2.061581        -0.303167
