19
Iteration:  1206
 C         2.721919         1.228637        -0.108895
 C         1.752164         0.145968        -0.051555
 C         0.411743        -0.515375        -0.912050
 C         0.299583        -1.221907         0.388740
 C         0.648115         0.083201         1.102142
 O         1.062943        -0.056111         2.633240
 C         1.754331        -1.277720         2.793858
 O         2.718483        -1.586715         1.606085
 C         1.989122        -1.419874         0.383411
 H         3.596030         0.916262         0.547513
 H         3.297201         1.288961        -1.093375
 H         2.246540         2.143890         0.132784
 H        -0.433609         0.080544        -1.458824
 H         0.846286        -1.156445        -1.679973
 H        -0.632571        -1.723654         0.854331
 H        -0.089358         0.838440         1.162487
 H         2.486106        -1.199325         3.694893
 H         1.099338        -2.201663         2.619103
 H         2.594104        -1.957719        -0.262127
