19
Iteration:  4992charge 0 multiplicity 1
 C         2.740461         1.129237        -0.199015
 C         1.740514         0.083066        -0.011965
 C         0.651231        -0.474790        -0.919793
 C         0.345951        -1.197975         0.326039
 C         0.683553         0.123964         1.225492
 O         1.057412        -0.029634         2.579824
 C         1.666225        -1.294818         2.739079
 O         2.571951        -1.553005         1.699738
 C         1.900956        -1.446535         0.475300
 H         3.398687         1.235462         0.697402
 H         3.370796         1.037132        -1.136975
 H         2.381911         2.189637        -0.301943
 H        -0.007187         0.262707        -1.330893
 H         1.082196        -1.034845        -1.916416
 H        -0.270195        -2.085346         0.342433
 H         0.039384         1.020100         1.068685
 H         2.227129        -1.217095         3.659631
 H         0.988833        -2.114163         2.677705
 H         2.402075        -2.018746        -0.351993
