19
Iteration:  1440
 C         2.737611         1.208386        -0.217548
 C         1.675121         0.135715         0.069281
 C         0.525841        -0.355279        -0.834321
 C         0.463663        -1.346786         0.415081
 C         0.575581         0.033396         1.210490
 O         1.123219         0.007080         2.516947
 C         1.720783        -1.324244         2.720157
 O         2.569929        -1.674877         1.600007
 C         1.976332        -1.293810         0.435909
 H         3.576282         1.253052         0.459480
 H         3.242980         0.747524        -1.083519
 H         2.265588         2.261829        -0.463855
 H        -0.410230         0.170867        -1.043984
 H         0.928340        -0.906730        -1.790113
 H         0.019635        -2.302507         0.725939
 H        -0.191374         0.820911         1.184344
 H         2.378968        -1.352171         3.558047
 H         0.845677        -1.907773         2.850103
 H         2.588255        -1.769816        -0.360879
