19
Iteration:  3040charge 0 multiplicity 1
 C         2.758149         1.190174        -0.249644
 C         1.727911         0.159502         0.003721
 C         0.579227        -0.380888        -0.841660
 C         0.498928        -1.320501         0.355251
 C         0.594924         0.064121         1.277624
 O         1.115904        -0.012378         2.598808
 C         1.635104        -1.342099         2.739613
 O         2.511080        -1.672452         1.665626
 C         1.982069        -1.302254         0.330247
 H         3.392027         1.532133         0.627395
 H         3.453455         0.861325        -0.977921
 H         2.284490         2.192173        -0.515406
 H        -0.258513         0.217331        -1.103250
 H         0.913430        -0.935564        -1.810425
 H        -0.160477        -2.166560         0.414824
 H        -0.067830         0.851491         1.282690
 H         2.287478        -1.391456         3.626232
 H         0.809578        -2.127224         2.845949
 H         2.432672        -1.875324        -0.504192
