19
Iteration:  1973
 C         2.730142         1.134652        -0.244428
 C         1.760947         0.113356         0.011679
 C         0.542454        -0.392039        -0.824970
 C         0.281017        -1.162259         0.392920
 C         0.666710         0.080901         1.283277
 O         1.020624        -0.153665         2.595219
 C         1.708505        -1.385714         2.681935
 O         2.701035        -1.462210         1.634213
 C         1.997402        -1.438401         0.389559
 H         3.365037         1.162041         0.651168
 H         3.410475         0.953207        -1.071303
 H         2.183191         2.124814        -0.415165
 H        -0.212090         0.423037        -1.055265
 H         0.909603        -0.787696        -1.868387
 H        -0.608739        -1.829716         0.444123
 H        -0.041407         0.902641         1.101703
 H         2.287654        -1.191052         3.647126
 H         0.998099        -2.182861         2.531979
 H         2.353820        -2.109789        -0.416046
