19
Iteration:  4550
 C         2.850233         1.116158        -0.142790
 C         1.800169         0.016456         0.017417
 C         0.546649        -0.418233        -0.974985
 C         0.352035        -1.253595         0.394274
 C         0.549111         0.052068         1.166320
 O         0.986909        -0.030470         2.481418
 C         1.692500        -1.301773         2.743115
 O         2.658455        -1.458712         1.788195
 C         1.958882        -1.379341         0.411227
 H         3.584004         1.049539         0.622858
 H         3.354530         0.856619        -1.091477
 H         2.421501         2.090576        -0.207512
 H        -0.176151         0.364951        -1.335497
 H         0.879205        -0.967299        -1.799335
 H        -0.407110        -2.107528         0.616118
 H        -0.198866         0.828551         0.998995
 H         2.180942        -1.122568         3.734439
 H         0.939905        -2.036875         2.579235
 H         2.535170        -2.087279        -0.307293
