19
Iteration:   746charge 0 multiplicity 1
 C         2.689576         1.162130        -0.195155
 C         1.698362         0.143478        -0.005138
 C         0.412599        -0.457952        -0.839690
 C         0.448341        -1.225126         0.474374
 C         0.709313         0.117608         1.159259
 O         1.159752        -0.036516         2.498174
 C         1.676342        -1.294905         2.701349
 O         2.627158        -1.656850         1.680968
 C         1.972568        -1.338784         0.392552
 H         3.174626         1.319530         0.751112
 H         3.499487         0.843168        -0.928425
 H         2.247280         2.130975        -0.498979
 H        -0.307358         0.344959        -0.991113
 H         0.700372        -0.932494        -1.757054
 H        -0.166726        -2.027914         0.793418
 H        -0.099831         0.833243         1.152606
 H         2.158036        -1.452829         3.619739
 H         0.904459        -2.096774         2.559068
 H         2.453732        -2.125561        -0.323315
