19
Iteration:  2247
 C         2.706340         1.392630        -0.044227
 C         1.724416         0.176666        -0.022678
 C         0.565052        -0.465434        -0.983894
 C         0.281618        -1.259677         0.361238
 C         0.713626         0.053053         1.088107
 O         1.139113        -0.067719         2.488662
 C         1.886457        -1.299044         2.809374
 O         2.514564        -1.734510         1.689310
 C         1.867696        -1.463511         0.460829
 H         3.225409         1.494418         0.864374
 H         3.296775         1.598109        -0.898075
 H         2.157934         2.356882        -0.107768
 H        -0.124176         0.179500        -1.396744
 H         0.952593        -1.115539        -1.794387
 H        -0.634517        -1.818049         0.565991
 H        -0.044702         0.832868         1.073165
 H         2.652922        -1.144641         3.561588
 H         1.191380        -2.107786         3.102894
 H         2.359660        -2.047847        -0.351363
