19
Iteration:  3591
 C         2.638879         1.250810        -0.082437
 C         1.656849         0.190334         0.099591
 C         0.632101        -0.394313        -0.900394
 C         0.426233        -1.346206         0.356020
 C         0.634637        -0.002785         1.137381
 O         1.336482         0.083995         2.484021
 C         1.627759        -1.247646         2.760317
 O         2.500675        -1.756529         1.695631
 C         1.893380        -1.436441         0.363622
 H         3.628098         1.358026         0.456952
 H         3.007836         1.280030        -1.209580
 H         2.200755         2.201240        -0.117666
 H        -0.135912         0.395058        -1.254148
 H         1.112460        -1.016154        -1.589144
 H        -0.149888        -2.208922         0.483884
 H        -0.215920         0.643288         1.055628
 H         2.357416        -1.219346         3.595308
 H         0.678391        -1.921394         2.947449
 H         2.442231        -1.901594        -0.554420
