19
Iteration:  1104
 C         2.537851         1.156024        -0.195869
 C         1.642419         0.082274         0.066174
 C         0.573975        -0.429743        -0.950448
 C         0.346634        -1.136088         0.386850
 C         0.693434         0.166315         1.192871
 O         1.185516         0.006792         2.581058
 C         1.732759        -1.340777         2.700717
 O         2.737378        -1.677385         1.659333
 C         1.929548        -1.465899         0.451771
 H         2.783682         1.538405         0.774742
 H         3.468823         1.103419        -0.798238
 H         1.930167         2.031873        -0.607912
 H        -0.173788         0.270135        -1.352484
 H         1.034348        -0.998337        -1.808555
 H        -0.458262        -1.928185         0.605504
 H         0.056032         1.100873         1.130901
 H         2.196412        -1.510225         3.638456
 H         0.938237        -2.168585         2.535426
 H         2.423042        -2.078646        -0.290158
