19
Iteration:  2177
 C         2.751092         1.095699        -0.204901
 C         1.650662         0.146405        -0.031046
 C         0.514831        -0.358272        -0.942765
 C         0.389751        -1.192533         0.438213
 C         0.654351         0.064682         1.210395
 O         1.039762        -0.122529         2.589181
 C         1.704626        -1.435612         2.759072
 O         2.649151        -1.565627         1.682159
 C         1.999217        -1.250173         0.376885
 H         3.464078         1.237682         0.660801
 H         3.307231         1.017906        -1.191665
 H         2.656372         2.169111        -0.519996
 H        -0.401051         0.203610        -1.268197
 H         0.837557        -0.915917        -1.813643
 H        -0.268718        -1.944409         0.887087
 H        -0.202102         0.812923         1.212154
 H         2.420757        -1.336901         3.651943
 H         0.909850        -2.307167         2.614299
 H         2.711324        -1.751211        -0.345673
