19
Iteration:  3665charge 0 multiplicity 1
 C         2.786556         1.008276        -0.233679
 C         1.704388         0.131867         0.102858
 C         0.576001        -0.315184        -0.923700
 C         0.373738        -1.234760         0.352307
 C         0.507649        -0.021161         1.249000
 O         0.987409        -0.048462         2.597129
 C         1.753530        -1.303954         2.793931
 O         2.675334        -1.514454         1.605566
 C         1.978783        -1.322045         0.359111
 H         3.391622         1.377849         0.599413
 H         3.557599         0.407751        -0.669030
 H         2.628422         1.875409        -0.831242
 H        -0.172326         0.466020        -1.209566
 H         1.048887        -0.872346        -1.749399
 H        -0.257833        -2.055521         0.636340
 H        -0.345344         0.760376         1.208040
 H         2.368057        -1.170545         3.671241
 H         1.139258        -2.155871         2.680998
 H         2.300331        -1.920277        -0.479892
