19
Iteration:  2366
 C         2.756010         1.223406        -0.241900
 C         1.680698         0.178332         0.078406
 C         0.606126        -0.257264        -0.979967
 C         0.369211        -1.277092         0.369759
 C         0.561969        -0.043846         1.264003
 O         1.132385        -0.087745         2.520445
 C         1.715290        -1.315532         2.811229
 O         2.615187        -1.641099         1.705763
 C         1.946730        -1.397792         0.386161
 H         3.591882         1.269853         0.471508
 H         3.004289         1.063337        -1.329680
 H         2.158514         2.203777        -0.378454
 H        -0.113225         0.475830        -1.202829
 H         0.927355        -0.809458        -1.901001
 H        -0.318455        -2.143213         0.461821
 H        -0.252973         0.734686         1.147927
 H         2.373070        -1.224042         3.720232
 H         1.066839        -2.180532         3.097721
 H         2.406431        -2.035618        -0.458930
