19
Iteration:  4588charge 0 multiplicity 1
 C         2.707970         1.244136        -0.143844
 C         1.667911         0.119221         0.058251
 C         0.699067        -0.432220        -0.948615
 C         0.456237        -1.283990         0.387480
 C         0.553305         0.056630         1.140093
 O         1.107690         0.096765         2.412942
 C         1.699090        -1.220495         2.756068
 O         2.497404        -1.807999         1.768446
 C         1.990573        -1.432718         0.434882
 H         3.558767         1.307203         0.635446
 H         3.182401         1.279658        -1.182313
 H         2.166298         2.270592        -0.213509
 H        -0.008477         0.299732        -1.338581
 H         1.151979        -1.044265        -1.863117
 H        -0.086059        -2.111516         0.755555
 H        -0.221591         0.857041         1.117590
 H         2.279902        -1.149873         3.666805
 H         0.900950        -1.844806         3.124258
 H         2.535331        -2.077875        -0.322175
