19
Iteration:  1013
 C         2.718404         1.201002        -0.194965
 C         1.671282         0.090016        -0.015390
 C         0.602909        -0.402497        -0.930688
 C         0.272801        -1.230846         0.379360
 C         0.594455         0.078363         1.215212
 O         1.031116        -0.031223         2.599225
 C         1.899728        -1.286914         2.710088
 O         2.709037        -1.561182         1.627299
 C         1.835515        -1.517123         0.466540
 H         3.484954         1.111363         0.668900
 H         3.364069         1.227157        -1.065699
 H         2.279444         2.223773        -0.018878
 H        -0.165293         0.291815        -1.183660
 H         0.844805        -0.950211        -1.838587
 H        -0.482315        -1.937865         0.368980
 H         0.062673         1.083940         1.248680
 H         2.547356        -1.247017         3.641747
 H         1.167613        -2.219507         2.764479
 H         2.346066        -2.270968        -0.277100
