19
Iteration:  1243
 C         2.649061         1.167045        -0.164183
 C         1.602060         0.124310         0.135340
 C         0.613218        -0.332419        -0.795170
 C         0.431985        -1.314828         0.433372
 C         0.625248         0.002072         1.155991
 O         1.208313         0.028645         2.463890
 C         1.711198        -1.247326         2.703017
 O         2.577502        -1.653485         1.584445
 C         1.988460        -1.417275         0.419224
 H         3.297088         1.466640         0.660104
 H         3.119521         0.831122        -1.046310
 H         2.095768         2.106019        -0.499458
 H        -0.293133         0.152229        -1.018439
 H         1.237841        -0.631139        -1.689111
 H        -0.317783        -2.012604         0.542144
 H        -0.373253         0.485570         1.148331
 H         2.253407        -1.259359         3.617309
 H         0.865780        -1.998001         2.854574
 H         2.527841        -1.903936        -0.499436
