19
Iteration:  1785charge 0 multiplicity 1
 C         2.757734         1.235419        -0.260847
 C         1.724022         0.102839         0.008528
 C         0.599318        -0.416570        -0.897930
 C         0.352576        -1.171386         0.385449
 C         0.667388         0.110871         1.263291
 O         0.994235        -0.173444         2.565146
 C         1.808338        -1.339873         2.742257
 O         2.633325        -1.596522         1.632454
 C         1.891378        -1.348714         0.414196
 H         3.489638         1.250493         0.571540
 H         3.278932         1.170441        -1.200440
 H         2.216673         2.185539        -0.340054
 H        -0.236795         0.262574        -1.218662
 H         0.775161        -1.097388        -1.756744
 H        -0.402039        -1.876591         0.631875
 H        -0.045078         0.951520         1.416740
 H         2.309332        -1.156386         3.668721
 H         1.119501        -2.270805         2.958911
 H         2.280573        -2.155293        -0.259293
