19
Iteration:  2623
 C         2.788634         1.234627        -0.076952
 C         1.751238         0.141608         0.045622
 C         0.586169        -0.409837        -0.858589
 C         0.304516        -1.244546         0.437663
 C         0.672928         0.047132         1.092055
 O         0.999912        -0.102852         2.482883
 C         1.771004        -1.215171         2.758356
 O         2.653975        -1.685945         1.602199
 C         1.873099        -1.407239         0.350539
 H         3.470961         1.304386         0.878344
 H         3.386016         1.382196        -0.943892
 H         2.212255         2.167538        -0.067271
 H        -0.249904         0.212676        -1.185600
 H         0.885208        -1.034387        -1.663717
 H        -0.569800        -1.937655         0.581683
 H        -0.050602         0.967307         1.291529
 H         2.443653        -0.922255         3.560774
 H         1.208492        -2.085172         3.076941
 H         2.265262        -2.181659        -0.387280
