19
Iteration:  4958charge 0 multiplicity 1
 C         2.653834         1.291399        -0.200607
 C         1.750532         0.086171         0.012645
 C         0.686598        -0.421738        -0.838669
 C         0.455506        -1.282207         0.361680
 C         0.643445         0.064628         1.153554
 O         1.165141         0.029877         2.431048
 C         1.621536        -1.188085         2.731376
 O         2.441711        -1.841319         1.727485
 C         1.980926        -1.386349         0.493098
 H         3.585162         1.172758         0.428675
 H         3.130773         1.306781        -1.226288
 H         2.201387         2.291791        -0.054064
 H        -0.019351         0.377631        -1.001527
 H         1.015224        -1.056011        -1.757278
 H        -0.274431        -2.077328         0.501357
 H        -0.111198         0.870800         1.137105
 H         2.168548        -0.951686         3.606358
 H         0.927763        -1.943427         2.964195
 H         2.590583        -1.964342        -0.198511
