19
Iteration:  3704
 C         2.819228         1.217833        -0.228409
 C         1.712475         0.141248        -0.000067
 C         0.538122        -0.431367        -0.877925
 C         0.432320        -1.213961         0.438690
 C         0.629570         0.022528         1.196414
 O         1.041526        -0.051796         2.563769
 C         1.660762        -1.340436         2.762456
 O         2.606757        -1.604421         1.639329
 C         1.979498        -1.355245         0.378104
 H         3.275973         1.394944         0.744354
 H         3.434033         0.838181        -1.069177
 H         2.250922         2.076470        -0.743739
 H        -0.198055         0.351935        -0.988033
 H         0.834295        -0.946712        -1.846377
 H        -0.256041        -2.091714         0.659170
 H        -0.054225         0.828678         1.107044
 H         2.217427        -1.306044         3.724595
 H         0.787722        -2.051246         2.980604
 H         2.507844        -2.063187        -0.353710
