19
Iteration:    40
 C         2.708515         1.213107        -0.262711
 C         1.759609         0.099666         0.006446
 C         0.524605        -0.426168        -0.946864
 C         0.363314        -1.258147         0.331152
 C         0.605083         0.066885         1.244230
 O         1.140339        -0.016903         2.563039
 C         1.799155        -1.229408         2.803808
 O         2.514436        -1.726076         1.709838
 C         1.964581        -1.332521         0.411862
 H         3.334672         1.448023         0.609995
 H         3.451259         0.983015        -1.087415
 H         2.145720         2.129226        -0.490222
 H        -0.215775         0.404128        -1.123512
 H         0.779303        -0.972847        -1.859649
 H        -0.359438        -2.083011         0.338513
 H        -0.247062         0.773957         1.248528
 H         2.587368        -1.260311         3.576275
 H         1.244611        -2.150962         3.197989
 H         2.537604        -1.968693        -0.334143
