19
Iteration:  2634
 C         2.790179         1.187954        -0.114129
 C         1.727303         0.108783         0.006591
 C         0.523881        -0.334699        -0.961228
 C         0.393846        -1.213584         0.359639
 C         0.616934         0.092027         1.177860
 O         1.026086        -0.146370         2.525121
 C         1.793594        -1.276120         2.807829
 O         2.633698        -1.579076         1.625058
 C         1.897895        -1.447603         0.415676
 H         3.399106         1.212070         0.878288
 H         3.423105         0.884332        -0.919707
 H         2.256341         2.125206        -0.261856
 H        -0.279885         0.364388        -1.231632
 H         0.857387        -0.912379        -1.795879
 H        -0.392013        -1.966818         0.647517
 H        -0.286819         0.872387         1.156032
 H         2.467211        -1.033224         3.629295
 H         1.174490        -2.141304         3.012566
 H         2.336152        -2.181965        -0.333651
