19
Iteration:  3668charge 0 multiplicity 1
 C         2.773928         0.989757        -0.239961
 C         1.650435         0.139214         0.079242
 C         0.609106        -0.329364        -0.889804
 C         0.388044        -1.216654         0.329892
 C         0.495478        -0.023036         1.261557
 O         0.994797        -0.049259         2.587933
 C         1.721669        -1.285702         2.801388
 O         2.697870        -1.524211         1.598403
 C         1.967758        -1.319843         0.386959
 H         3.429586         1.462474         0.548608
 H         3.569837         0.334775        -0.691224
 H         2.657568         1.864834        -0.787334
 H        -0.175450         0.511951        -1.128767
 H         1.044809        -0.734823        -1.800850
 H        -0.221109        -2.068650         0.544822
 H        -0.239788         0.777480         1.279079
 H         2.419568        -1.217122         3.655148
 H         1.153220        -2.198823         2.632475
 H         2.429918        -1.986766        -0.486260
