19
Iteration:  2511charge 0 multiplicity 1
 C         2.768873         1.182046        -0.346382
 C         1.665945         0.137793         0.034912
 C         0.617039        -0.293049        -0.953365
 C         0.316439        -1.193288         0.349809
 C         0.615965         0.062758         1.254781
 O         1.084698        -0.195947         2.564378
 C         1.733690        -1.419360         2.792173
 O         2.674557        -1.522036         1.723254
 C         1.890437        -1.324417         0.450142
 H         3.156117         1.397522         0.615400
 H         3.616586         0.700736        -0.897433
 H         2.285988         2.004152        -0.857823
 H        -0.145288         0.438540        -1.315341
 H         1.024032        -0.801690        -1.742549
 H        -0.345600        -2.107279         0.556241
 H        -0.136770         0.847294         1.283580
 H         2.281804        -1.381460         3.735767
 H         1.040938        -2.279885         2.781568
 H         2.209909        -2.139411        -0.247526
