19
Iteration:  2551
 C         2.641876         1.239042        -0.144738
 C         1.737288         0.128076         0.019508
 C         0.549417        -0.396544        -0.873773
 C         0.458293        -1.263411         0.435712
 C         0.652002         0.076683         1.181535
 O         1.111966         0.047109         2.496044
 C         1.659315        -1.290454         2.723295
 O         2.603187        -1.810065         1.634536
 C         1.997599        -1.365209         0.373316
 H         3.385549         1.156001         0.714897
 H         3.175282         1.236381        -1.141204
 H         2.228516         2.302043        -0.009853
 H        -0.336507         0.251768        -0.993393
 H         1.090907        -0.827619        -1.842391
 H        -0.206432        -2.060888         0.663030
 H        -0.067134         0.964350         1.278097
 H         2.072837        -1.319394         3.787572
 H         0.805647        -2.001296         2.765289
 H         2.497598        -2.019384        -0.399495
