19
Iteration:  3230
 C         2.679319         1.282459        -0.212868
 C         1.699121         0.154863         0.103955
 C         0.688873        -0.347973        -0.852041
 C         0.378149        -1.288404         0.346244
 C         0.669933         0.006628         1.278383
 O         1.227041         0.031912         2.506014
 C         1.682933        -1.305946         2.690685
 O         2.494149        -1.725537         1.672378
 C         1.923363        -1.402210         0.379499
 H         3.370839         1.305726         0.651772
 H         3.157327         0.979662        -1.246233
 H         1.944387         2.128552        -0.205119
 H        -0.272195         0.192171        -1.264760
 H         1.036666        -0.880747        -1.780440
 H        -0.316334        -2.157937         0.397208
 H        -0.169465         0.731795         1.308152
 H         2.225243        -1.434011         3.643708
 H         0.700198        -1.852378         2.546115
 H         2.565144        -2.088614        -0.213230
