19
Iteration:   217charge 0 multiplicity 1
 C         2.811913         1.233210        -0.140928
 C         1.743884         0.133543         0.181815
 C         0.658213        -0.316544        -0.868441
 C         0.333969        -1.261533         0.263711
 C         0.498298        -0.043825         1.211302
 O         0.910556        -0.223437         2.583787
 C         2.147473        -0.773254         2.619232
 O         2.337434        -1.924268         1.677654
 C         1.921162        -1.465480         0.424466
 H         3.751890         1.163508         0.418387
 H         3.074954         0.862138        -1.215915
 H         2.512059         2.254268        -0.367146
 H        -0.147958         0.365522        -1.235663
 H         0.986783        -0.803324        -1.776386
 H        -0.444135        -1.918301         0.336798
 H        -0.289149         0.676179         1.136158
 H         2.936305         0.005593         2.458992
 H         2.224131        -1.253478         3.669848
 H         2.462535        -2.066374        -0.397344
