19
Iteration:  4291
 C         2.664202         1.242933        -0.104608
 C         1.759731         0.082153         0.017615
 C         0.679906        -0.448875        -0.919130
 C         0.476447        -1.266502         0.419852
 C         0.655323         0.096887         1.098824
 O         1.139281         0.023996         2.380112
 C         1.629893        -1.234516         2.824045
 O         2.475686        -1.770413         1.732195
 C         1.978386        -1.375604         0.420721
 H         3.298865         1.296134         0.758423
 H         3.347299         1.200352        -0.984298
 H         2.131171         2.156593        -0.372131
 H        -0.121413         0.248735        -1.178049
 H         0.991681        -0.930532        -1.849043
 H        -0.383933        -1.937073         0.642543
 H        -0.162298         0.865944         1.055186
 H         2.214665        -1.037369         3.791829
 H         0.758798        -1.932137         2.920424
 H         2.397015        -2.133408        -0.178322
