19
Iteration:  4229
 C         2.698289         1.201055        -0.191331
 C         1.769945         0.080518         0.018399
 C         0.586620        -0.434604        -0.902945
 C         0.452812        -1.219692         0.413759
 C         0.685961         0.058636         1.134939
 O         1.079813        -0.003335         2.451910
 C         1.660755        -1.264907         2.779997
 O         2.423335        -1.739034         1.734478
 C         2.125323        -1.299047         0.424823
 H         3.143912         1.467061         0.797709
 H         3.456937         0.777346        -0.767426
 H         2.212528         2.117328        -0.558746
 H        -0.089613         0.327910        -1.106801
 H         0.841398        -1.023975        -1.892411
 H        -0.434909        -1.823568         0.636018
 H        -0.211792         0.714111         1.064552
 H         2.274141        -1.210949         3.662754
 H         0.757056        -1.951374         2.874960
 H         2.678684        -1.964560        -0.330479
