19
Iteration:  1037
 C         2.715288         1.145696        -0.227293
 C         1.680142         0.114923         0.094312
 C         0.532784        -0.345718        -0.874505
 C         0.392505        -1.231254         0.344247
 C         0.600410        -0.009572         1.221598
 O         1.113378        -0.059940         2.492556
 C         1.845019        -1.222180         2.804696
 O         2.544088        -1.659188         1.615508
 C         1.932186        -1.362891         0.410751
 H         3.420818         1.337090         0.596341
 H         3.426774         0.910636        -1.015345
 H         2.212145         2.167899        -0.407538
 H        -0.209601         0.320686        -1.238499
 H         1.005271        -0.863372        -1.759358
 H        -0.347058        -2.026539         0.606144
 H        -0.328595         0.646709         1.341726
 H         2.640548        -0.980322         3.499118
 H         1.202246        -2.124622         3.208185
 H         2.509129        -1.935023        -0.353301
