19
Iteration:    96
 C         2.683939         1.225094        -0.321190
 C         1.719231         0.137957         0.021564
 C         0.527058        -0.385042        -0.890244
 C         0.381824        -1.234324         0.407757
 C         0.704005         0.054934         1.144396
 O         1.095456        -0.059089         2.579755
 C         1.713972        -1.307352         2.834218
 O         2.593477        -1.672389         1.684315
 C         2.000738        -1.389487         0.427935
 H         3.346987         1.375081         0.519144
 H         3.311076         0.900861        -1.224171
 H         2.223388         2.152871        -0.614783
 H        -0.361730         0.268108        -1.126414
 H         0.875607        -0.858715        -1.791807
 H        -0.422989        -1.887381         0.653500
 H        -0.096128         0.829625         1.198120
 H         2.354198        -1.163406         3.664027
 H         0.871499        -2.096628         2.865121
 H         2.543775        -2.023495        -0.361701
