19
Iteration:  1433
 C         2.707920         1.206009        -0.217876
 C         1.611681         0.190473         0.088354
 C         0.535007        -0.412348        -0.830952
 C         0.531545        -1.375595         0.395027
 C         0.589800         0.101269         1.223672
 O         1.091534         0.018655         2.554711
 C         1.720238        -1.256662         2.689907
 O         2.559867        -1.767134         1.589540
 C         2.034740        -1.311513         0.409716
 H         3.521949         1.199426         0.522580
 H         3.129219         0.897416        -1.225476
 H         2.564052         2.243465        -0.403874
 H        -0.290794         0.283905        -0.997000
 H         0.808057        -0.905113        -1.717819
 H        -0.153415        -2.169669         0.640311
 H        -0.267494         0.837569         1.273993
 H         2.434907        -1.153661         3.554408
 H         0.859296        -2.026341         2.804500
 H         2.633738        -1.915116        -0.358395
