19
Iteration:   274charge 0 multiplicity 1
 C         2.724419         1.215155        -0.201437
 C         1.714351         0.055978         0.147885
 C         0.665772        -0.330303        -0.895531
 C         0.327108        -1.325469         0.267322
 C         0.589105         0.128242         1.183097
 O         0.966579        -0.046488         2.549505
 C         2.059660        -1.061990         2.766295
 O         2.553645        -1.789072         1.608804
 C         1.760867        -1.524240         0.425761
 H         3.434296         1.363402         0.696699
 H         3.370895         0.902919        -1.033987
 H         2.180605         2.206393        -0.341059
 H        -0.173993         0.330049        -0.939971
 H         1.144069        -0.740687        -1.855453
 H        -0.414853        -2.037531         0.572681
 H        -0.184733         0.976669         1.067940
 H         2.783190        -0.521330         3.420049
 H         1.452742        -1.916954         3.394786
 H         2.414534        -2.076298        -0.343547
