19
Iteration:  2848charge 0 multiplicity 1
 C         2.790528         1.123738        -0.299550
 C         1.649437         0.162882         0.027735
 C         0.580312        -0.301413        -0.927723
 C         0.454622        -1.311600         0.324595
 C         0.620882         0.057898         1.303587
 O         1.018530        -0.106087         2.639767
 C         1.722489        -1.345320         2.783341
 O         2.544231        -1.608223         1.633611
 C         1.983587        -1.287037         0.399813
 H         3.394007         1.453806         0.518432
 H         3.646300         0.622727        -0.962074
 H         2.480944         2.133517        -0.693622
 H        -0.311055         0.347770        -0.930137
 H         0.985770        -0.723010        -1.829948
 H        -0.136206        -2.256179         0.213467
 H        -0.229003         0.875246         1.212408
 H         2.410867        -1.281474         3.593209
 H         0.962167        -2.094852         2.988013
 H         2.597557        -1.821780        -0.325866
