19
Iteration:  3132charge 0 multiplicity 1
 C         2.839213         1.154039        -0.055953
 C         1.642232         0.181353         0.065973
 C         0.507153        -0.364613        -0.940509
 C         0.424248        -1.239809         0.452185
 C         0.551886         0.021033         1.147474
 O         1.127806        -0.073243         2.449345
 C         1.750521        -1.275076         2.688769
 O         2.596614        -1.673204         1.685639
 C         1.974827        -1.316056         0.398389
 H         3.571292         1.183840         0.736400
 H         3.206525         0.557253        -0.956980
 H         2.394801         2.116074        -0.327974
 H        -0.499219         0.251255        -0.944957
 H         0.701970        -0.795900        -1.943654
 H        -0.436030        -1.925627         0.562952
 H        -0.225250         0.860242         1.040827
 H         2.317175        -1.242917         3.632842
 H         0.963368        -2.087186         2.798643
 H         2.572603        -1.886624        -0.339650
