19
Iteration:  4925charge 0 multiplicity 1
 C         2.693781         1.273699        -0.185587
 C         1.716935         0.077892        -0.026026
 C         0.666478        -0.423697        -0.976337
 C         0.394873        -1.310438         0.258919
 C         0.611420         0.006398         1.174490
 O         1.244553         0.064681         2.585549
 C         1.605516        -1.192477         2.839621
 O         2.509121        -1.731921         1.730050
 C         1.956306        -1.400875         0.436309
 H         3.352657         1.102490         0.693637
 H         3.208306         1.057367        -1.138854
 H         2.184593         2.240996        -0.124777
 H        -0.048134         0.325426        -1.343772
 H         0.992891        -1.122185        -1.890925
 H        -0.444999        -2.001509         0.342365
 H        -0.169732         0.765316         1.273355
 H         2.232140        -1.157201         3.690784
 H         0.812801        -1.876334         2.959044
 H         2.515821        -2.007745        -0.269830
