19
Iteration:  4356charge 0 multiplicity 1
 C         2.920676         1.027392        -0.198023
 C         1.701105         0.140587         0.066325
 C         0.649964        -0.442891        -0.948474
 C         0.307664        -1.219344         0.291463
 C         0.529233         0.091612         1.174695
 O         0.895769        -0.117330         2.556118
 C         1.681261        -1.249684         2.765092
 O         2.741768        -1.433745         1.722434
 C         1.942784        -1.404295         0.444711
 H         3.642905         1.006565         0.620212
 H         3.462118         0.701223        -1.149618
 H         2.615667         2.011126        -0.578739
 H        -0.148464         0.243329        -1.346733
 H         1.057369        -1.037805        -1.796820
 H        -0.570772        -1.847603         0.527512
 H        -0.145564         0.964502         1.218648
 H         2.137808        -1.119992         3.791821
 H         1.160613        -2.250785         2.846707
 H         2.226965        -2.149685        -0.240468
