19
Iteration:  1108charge 0 multiplicity 1
 C         2.564973         1.171671        -0.195652
 C         1.631073         0.080251         0.070611
 C         0.576942        -0.411957        -0.939665
 C         0.355729        -1.148058         0.414753
 C         0.694511         0.156062         1.190524
 O         1.164458        -0.012997         2.578009
 C         1.734646        -1.310049         2.669183
 O         2.732007        -1.689897         1.678895
 C         1.925115        -1.453287         0.405349
 H         2.988421         1.632055         0.750320
 H         3.490980         1.141659        -0.797445
 H         1.918516         1.928427        -0.576888
 H        -0.340425         0.111659        -1.426443
 H         1.041253        -1.034678        -1.690858
 H        -0.518080        -1.847316         0.607059
 H         0.053392         0.993834         1.212697
 H         2.259534        -1.456718         3.684140
 H         0.983095        -2.059357         2.485207
 H         2.427295        -2.162043        -0.241786
