19
Iteration:  1514
 C         2.761656         1.219339        -0.208409
 C         1.571461         0.221696         0.045065
 C         0.513274        -0.358486        -0.952283
 C         0.428291        -1.341228         0.328196
 C         0.567026         0.003965         1.202624
 O         1.148328         0.007463         2.579379
 C         1.848031        -1.288944         2.791616
 O         2.597787        -1.755962         1.686732
 C         1.937513        -1.314719         0.355240
 H         3.179150         1.560455         0.742339
 H         3.570387         0.777329        -0.703264
 H         2.374511         2.092159        -0.767990
 H        -0.353104         0.286439        -1.071911
 H         0.963184        -0.706843        -1.899535
 H        -0.310825        -2.225956         0.481034
 H        -0.251614         0.697581         1.213657
 H         2.438255        -1.169382         3.686304
 H         0.994119        -2.012385         3.105815
 H         2.367435        -2.007066        -0.294394
