19
Iteration:  1287charge 0 multiplicity 1
 C         2.664548         1.315388        -0.261736
 C         1.711364         0.168281         0.025742
 C         0.595491        -0.424510        -0.924872
 C         0.365845        -1.245665         0.490806
 C         0.706152         0.033951         1.155138
 O         1.067507        -0.176986         2.541261
 C         1.777451        -1.291421         2.780228
 O         2.588908        -1.634623         1.630023
 C         1.916281        -1.398606         0.376620
 H         2.886402         1.762738         0.690295
 H         3.500463         0.944015        -0.786805
 H         2.256570         2.149262        -0.936732
 H        -0.188173         0.256734        -1.072558
 H         0.964635        -0.996453        -1.823949
 H        -0.429127        -1.618933         1.013184
 H         0.213841         1.001196         1.321608
 H         2.337407        -1.037975         3.647365
 H         1.112561        -2.138078         3.256063
 H         2.431433        -2.216629        -0.263008
