19
Iteration:  2423charge 0 multiplicity 1
 C         2.595915         1.271565        -0.013968
 C         1.703430         0.155049         0.038554
 C         0.670445        -0.476602        -0.929066
 C         0.293850        -1.234795         0.400714
 C         0.631317         0.057138         1.157423
 O         1.241843         0.034273         2.458524
 C         1.763783        -1.309159         2.671667
 O         2.599165        -1.692070         1.625975
 C         1.884572        -1.487028         0.446503
 H         3.300948         1.249308         0.809165
 H         3.390362         1.441466        -0.787608
 H         2.106153         2.271187         0.132397
 H        -0.106776         0.226058        -1.254621
 H         0.995087        -1.019363        -1.770528
 H        -0.676229        -1.872278         0.503730
 H        -0.086842         0.932166         1.225545
 H         2.440426        -1.161714         3.580693
 H         0.890782        -2.008694         2.792611
 H         2.211597        -2.233967        -0.356268
