19
Iteration:  1185charge 0 multiplicity 1
 C         2.737134         1.145420        -0.155107
 C         1.682106         0.072155         0.001254
 C         0.627984        -0.464222        -0.886533
 C         0.358152        -1.251462         0.469833
 C         0.609571         0.095105         1.253934
 O         1.021227        -0.091287         2.490119
 C         1.860326        -1.286759         2.681737
 O         2.620294        -1.524900         1.592255
 C         1.856470        -1.357786         0.442485
 H         3.737564         1.021334         0.373636
 H         3.025541         1.329415        -1.218520
 H         2.209037         2.035477         0.092530
 H        -0.230622         0.292514        -1.003730
 H         1.052865        -0.836609        -1.818490
 H        -0.298415        -2.133578         0.535382
 H        -0.083838         0.891970         1.286110
 H         2.543371        -0.938515         3.533092
 H         1.112990        -2.142568         2.896463
 H         2.318138        -2.073158        -0.193929
