19
Iteration:  3625
 C         2.717473         1.204295        -0.118409
 C         1.719853         0.077179         0.010203
 C         0.538433        -0.383066        -0.945335
 C         0.378279        -1.200660         0.454648
 C         0.659358         0.082071         1.107364
 O         1.073761        -0.040226         2.504505
 C         1.735655        -1.273952         2.751372
 O         2.651812        -1.683756         1.696604
 C         1.916645        -1.394640         0.357949
 H         3.223881         1.327187         0.922828
 H         3.501463         0.987512        -0.927825
 H         2.175696         2.132765        -0.198905
 H        -0.217840         0.399076        -1.302374
 H         0.744633        -1.041947        -1.757143
 H        -0.376399        -1.920828         0.692260
 H        -0.118760         0.794264         1.053470
 H         2.452475        -1.146040         3.604397
 H         0.959530        -2.092893         3.004117
 H         2.494791        -2.173734        -0.231213
