19
Iteration:   475
 C         2.768772         1.138362         0.030361
 C         1.649275         0.110675        -0.028023
 C         0.494135        -0.507141        -0.887800
 C         0.371703        -1.278910         0.381814
 C         0.591410         0.035265         1.260128
 O         1.180860         0.106560         2.533803
 C         1.731024        -1.193587         2.608419
 O         2.640738        -1.615959         1.575154
 C         1.971437        -1.406200         0.373472
 H         3.232228         1.098548         0.977366
 H         3.486766         0.840870        -0.798628
 H         2.474375         2.118283        -0.307317
 H        -0.389704         0.177940        -1.065930
 H         0.713707        -1.141544        -1.702192
 H        -0.509052        -1.957253         0.572770
 H        -0.388768         0.592956         1.270653
 H         2.457704        -1.244217         3.382306
 H         1.003016        -1.939785         2.806920
 H         2.282881        -2.151295        -0.250380
