19
Iteration:  2351charge 0 multiplicity 1
 C         2.706637         1.187066        -0.289057
 C         1.728377         0.116927         0.108850
 C         0.666813        -0.383076        -0.839017
 C         0.329855        -1.215631         0.359154
 C         0.577123         0.091905         1.214219
 O         0.985782        -0.110749         2.610075
 C         1.808746        -1.363424         2.671413
 O         2.649865        -1.587085         1.619437
 C         1.923025        -1.367073         0.444856
 H         3.534772         1.287776         0.422082
 H         3.330959         0.950575        -1.120575
 H         2.364235         2.175709        -0.418207
 H        -0.114591         0.364446        -1.162941
 H         1.142393        -0.888927        -1.717877
 H        -0.453509        -1.906944         0.489552
 H        -0.175956         0.833486         1.321934
 H         2.297060        -1.350026         3.615837
 H         1.051988        -2.126640         2.650012
 H         2.397307        -1.958491        -0.298146
