19
Iteration:  1874charge 0 multiplicity 1
 C         2.738170         1.375237        -0.080847
 C         1.878953         0.137490         0.014249
 C         0.502386        -0.505603        -0.937814
 C         0.298510        -1.185508         0.430446
 C         0.610619         0.077435         1.154662
 O         1.064714        -0.070742         2.520352
 C         1.844651        -1.295472         2.753784
 O         2.556665        -1.740936         1.580130
 C         1.940895        -1.449654         0.424176
 H         3.176562         1.594654         0.858400
 H         3.428975         1.374119        -0.861182
 H         2.150632         2.295231        -0.362641
 H        -0.320236         0.142576        -1.224903
 H         0.733336        -1.028044        -1.920448
 H        -0.386214        -1.849091         0.894779
 H        -0.071277         0.895793         1.040398
 H         2.582442        -1.115923         3.533314
 H         1.142380        -2.044268         3.189198
 H         2.287394        -2.116433        -0.368549
