19
Iteration:  1886
 C         2.724280         1.448214        -0.071853
 C         1.698454         0.079486         0.054723
 C         0.550919        -0.428661        -0.939251
 C         0.340706        -1.280424         0.407790
 C         0.705085         0.021455         1.149945
 O         1.140819        -0.029195         2.473421
 C         1.840450        -1.202287         2.743953
 O         2.517347        -1.823338         1.652310
 C         1.879210        -1.440619         0.379964
 H         3.316580         1.608220         0.771273
 H         3.413626         1.273814        -0.834224
 H         2.050197         2.337838        -0.254473
 H        -0.090540         0.402230        -1.068486
 H         0.872367        -1.018458        -1.825155
 H        -0.475641        -2.001455         0.529304
 H        -0.107065         0.705730         1.235236
 H         2.619197        -0.935635         3.500148
 H         1.108713        -1.994865         3.065181
 H         2.327274        -2.095543        -0.343405
