19
Iteration:  4154charge 0 multiplicity 1
 C         2.929303         1.185858        -0.192704
 C         1.731944         0.185045        -0.017052
 C         0.601371        -0.433037        -0.907507
 C         0.408905        -1.249668         0.379169
 C         0.568338        -0.031488         1.146531
 O         0.937502        -0.030156         2.553773
 C         1.720233        -1.264855         2.783907
 O         2.574855        -1.570617         1.698723
 C         1.929744        -1.421925         0.402009
 H         3.596711         0.922991         0.685064
 H         3.474938         0.968850        -1.099586
 H         2.614755         2.252939        -0.143864
 H        -0.325410         0.054975        -1.136365
 H         0.884718        -0.923994        -1.845841
 H        -0.353762        -1.941313         0.683036
 H        -0.124607         0.766177         0.996105
 H         2.358794        -0.894628         3.498861
 H         1.081977        -2.107178         3.043310
 H         2.344938        -2.105475        -0.357490
