19
Iteration:  3114
 C         2.742708         1.228547        -0.130477
 C         1.696333         0.149473         0.060183
 C         0.564727        -0.413848        -0.834321
 C         0.386693        -1.308472         0.339316
 C         0.622096         0.101431         1.192199
 O         1.171936         0.024289         2.486643
 C         1.700133        -1.271392         2.740533
 O         2.524119        -1.751840         1.614462
 C         1.975806        -1.377760         0.394613
 H         3.263397         1.230101         0.884351
 H         3.532336         1.132557        -0.859138
 H         2.359623         2.220319        -0.062682
 H        -0.220835         0.259132        -1.160078
 H         0.858686        -0.887849        -1.731374
 H        -0.146763        -2.265758         0.503793
 H        -0.307706         0.786005         1.130287
 H         2.396841        -1.198522         3.601092
 H         0.913289        -2.006766         2.881590
 H         2.387469        -1.908484        -0.459779
