19
Iteration:  2729
 C         2.613293         1.342701        -0.195435
 C         1.777075         0.091111         0.076442
 C         0.702231        -0.362629        -0.847495
 C         0.355682        -1.248714         0.361981
 C         0.658976         0.072263         1.158187
 O         1.145814         0.029130         2.504344
 C         1.743572        -1.346732         2.745814
 O         2.545389        -1.755205         1.640487
 C         1.876170        -1.489939         0.444886
 H         3.205001         1.515306         0.667724
 H         3.283038         1.264016        -1.109518
 H         1.861472         2.134506        -0.197769
 H        -0.004935         0.541821        -1.076847
 H         1.156042        -0.891482        -1.668694
 H        -0.443189        -2.036346         0.292805
 H        -0.051703         0.830981         1.199307
 H         2.357030        -1.265115         3.613473
 H         0.881215        -2.106886         2.882336
 H         2.410550        -2.054692        -0.358314
