19
Iteration:  2968
 C         2.786921         1.123591        -0.120202
 C         1.736989         0.168000         0.069356
 C         0.566205        -0.422260        -0.966439
 C         0.373113        -1.243995         0.323228
 C         0.658779         0.010993         1.247434
 O         1.022008        -0.064791         2.566891
 C         1.778036        -1.260367         2.787842
 O         2.554946        -1.570876         1.613440
 C         1.895178        -1.349229         0.324061
 H         3.532157         1.168360         0.635170
 H         3.428863         0.900721        -1.038768
 H         2.420644         2.145959        -0.041160
 H        -0.304908         0.208011        -1.253407
 H         1.027696        -0.881337        -1.821979
 H        -0.190716        -2.180181         0.383561
 H        -0.194552         0.837119         1.262455
 H         2.477999        -1.013524         3.610709
 H         1.109863        -2.190756         3.225882
 H         2.348072        -2.124024        -0.338899
