19
Iteration:  4274
 C         2.565926         1.276274        -0.149750
 C         1.743538         0.054424         0.071270
 C         0.785434        -0.451792        -0.996950
 C         0.332707        -1.224258         0.261105
 C         0.679829         0.081344         1.145945
 O         1.261730         0.092979         2.536570
 C         1.631910        -1.235323         2.760654
 O         2.452259        -1.759675         1.739524
 C         1.950339        -1.508326         0.491015
 H         3.065323         1.604104         0.807561
 H         3.261863         1.176568        -0.960406
 H         1.777626         2.062366        -0.237980
 H         0.150849         0.278663        -1.509884
 H         1.216016        -1.214853        -1.719201
 H        -0.372425        -2.023317         0.446531
 H        -0.008377         0.926926         1.096243
 H         2.337208        -1.158560         3.524644
 H         0.754518        -1.869032         2.989341
 H         2.554945        -2.010192        -0.356345
