19
Iteration:  4148
 C         2.929475         1.199732        -0.186649
 C         1.770218         0.131853         0.005516
 C         0.597624        -0.405254        -0.887596
 C         0.418727        -1.319472         0.380102
 C         0.544816        -0.024340         1.149251
 O         0.970268        -0.028262         2.533852
 C         1.703271        -1.221903         2.787634
 O         2.541149        -1.588969         1.675890
 C         1.953544        -1.390952         0.387552
 H         3.577835         0.981558         0.649434
 H         3.486803         1.180437        -1.172242
 H         2.546752         2.212052        -0.222811
 H        -0.276934         0.332230        -1.142202
 H         0.865085        -1.078192        -1.731688
 H        -0.448726        -1.986461         0.585479
 H        -0.273728         0.736112         1.037340
 H         2.399393        -0.984389         3.702073
 H         1.035606        -2.050411         3.181964
 H         2.324173        -2.085185        -0.379452
