19
Iteration:  4829
 C         2.835297         1.137778        -0.253052
 C         1.713071         0.097003         0.119191
 C         0.672988        -0.410276        -0.914693
 C         0.402967        -1.241504         0.407631
 C         0.523541         0.110442         1.125016
 O         0.947293        -0.011000         2.563805
 C         1.727367        -1.267866         2.740358
 O         2.628430        -1.643462         1.710753
 C         1.973095        -1.369217         0.378906
 H         3.219927         1.444779         0.707349
 H         3.558158         0.658076        -0.919138
 H         2.370766         2.007946        -0.708340
 H        -0.010173         0.360829        -0.977059
 H         0.631165        -1.190850        -1.697426
 H        -0.193681        -2.120862         0.406182
 H        -0.341498         0.801212         1.082505
 H         2.378614        -1.014417         3.556055
 H         0.910503        -2.072995         2.818493
 H         2.518091        -2.058066        -0.402886
