19
Iteration:   155charge 0 multiplicity 1
 C         2.817360         1.147241        -0.048291
 C         1.700788         0.075166         0.021328
 C         0.583723        -0.363518        -0.943455
 C         0.367953        -1.248789         0.397684
 C         0.522681         0.071132         1.203453
 O         0.892246        -0.188560         2.497965
 C         2.122964        -0.950016         2.632379
 O         2.485111        -1.772456         1.659544
 C         1.829599        -1.397586         0.412353
 H         3.427483         1.042972         0.885304
 H         3.532055         0.923148        -0.771250
 H         2.485612         2.206568        -0.039567
 H        -0.291616         0.176002        -1.240283
 H         1.091423        -1.014689        -1.732008
 H        -0.350010        -2.116492         0.520067
 H        -0.138308         1.007116         1.118386
 H         3.049578        -0.289572         2.853088
 H         2.037835        -1.471287         3.623600
 H         2.193766        -2.086033        -0.352718
