19
Iteration:  3918charge 0 multiplicity 1
 C         2.651516         1.366112        -0.154863
 C         1.761365         0.126343         0.025403
 C         0.620749        -0.498337        -0.988317
 C         0.362564        -1.275737         0.325142
 C         0.638120         0.117448         1.157538
 O         1.184675         0.010993         2.529279
 C         1.669955        -1.291030         2.772041
 O         2.529998        -1.799880         1.725543
 C         1.967121        -1.386532         0.455574
 H         3.382193         1.337514         0.695837
 H         3.374698         1.443023        -1.044218
 H         2.101082         2.286937        -0.257324
 H        -0.072039         0.239603        -1.491076
 H         1.032221        -1.238320        -1.569396
 H        -0.393461        -1.994951         0.602803
 H        -0.233921         0.912655         1.261615
 H         2.388868        -1.084223         3.521144
 H         0.968934        -2.100448         2.878440
 H         2.396071        -2.066692        -0.289648
