19
Iteration:  4512charge 0 multiplicity 1
 C         2.917130         1.031999        -0.210596
 C         1.706170         0.121427         0.094683
 C         0.609714        -0.448364        -0.978583
 C         0.365931        -1.244237         0.394264
 C         0.602699         0.016717         1.182763
 O         0.892182        -0.035099         2.573404
 C         1.695023        -1.263589         2.734937
 O         2.602153        -1.496634         1.697641
 C         1.996373        -1.272821         0.368426
 H         3.648133         1.295884         0.607488
 H         3.458747         0.578972        -1.035752
 H         2.498888         2.039669        -0.496511
 H        -0.183212         0.224846        -1.222192
 H         0.991954        -1.224627        -1.755488
 H        -0.128940        -2.185947         0.458901
 H        -0.230531         0.754164         1.131157
 H         2.261254        -1.150603         3.658347
 H         1.024579        -2.148551         3.018847
 H         2.460080        -1.943211        -0.235184
