19
Iteration:  2348
 C         2.697004         1.155869        -0.268998
 C         1.748844         0.145777         0.101024
 C         0.660474        -0.405614        -0.825345
 C         0.342962        -1.199767         0.360139
 C         0.589385         0.126345         1.216293
 O         0.968440        -0.126499         2.614217
 C         1.805266        -1.347321         2.658723
 O         2.650058        -1.577672         1.596514
 C         1.935253        -1.384133         0.462628
 H         3.520917         1.290512         0.459091
 H         3.363016         0.979728        -1.174727
 H         2.336078         2.169372        -0.507417
 H        -0.163422         0.319668        -1.171093
 H         1.094411        -0.921387        -1.655348
 H        -0.538733        -1.964183         0.483503
 H        -0.209374         0.893047         1.298483
 H         2.289850        -1.449151         3.686198
 H         1.067478        -2.198470         2.625947
 H         2.426518        -1.929075        -0.370536
