19
Iteration:  2400
 C         2.666312         1.286103        -0.034015
 C         1.726810         0.141707         0.065460
 C         0.535978        -0.417071        -0.895679
 C         0.450867        -1.372263         0.406450
 C         0.643513         0.074758         1.191593
 O         1.164452         0.095091         2.477556
 C         1.729845        -1.245511         2.720933
 O         2.482436        -1.852639         1.618679
 C         2.003699        -1.385114         0.324052
 H         3.548778         1.407587         0.563661
 H         3.219594         1.359285        -1.026256
 H         2.141186         2.291648         0.101053
 H        -0.258078         0.271463        -1.100886
 H         0.767303        -0.938287        -1.819575
 H        -0.162580        -2.332242         0.583491
 H        -0.150546         0.900364         1.268028
 H         2.442512        -1.027174         3.587369
 H         0.825659        -1.862261         2.937494
 H         2.626384        -1.931205        -0.488581
