19
Iteration:  2936
 C         2.688602         1.236243        -0.034440
 C         1.683827         0.145193         0.166913
 C         0.562201        -0.368995        -0.921918
 C         0.382000        -1.246516         0.350054
 C         0.617886         0.014008         1.161446
 O         1.172839         0.036843         2.372749
 C         1.691750        -1.213442         2.759080
 O         2.606225        -1.768539         1.693562
 C         2.009251        -1.451771         0.396752
 H         3.433298         1.166116         0.714877
 H         3.128392         0.989629        -1.076259
 H         2.180487         2.168819        -0.185140
 H        -0.332226         0.282589        -1.088420
 H         0.958415        -0.726790        -1.819927
 H        -0.335349        -2.098938         0.451066
 H        -0.296134         0.722743         1.038965
 H         2.392953        -1.132253         3.582330
 H         0.921170        -2.050417         2.795209
 H         2.299002        -1.975315        -0.512711
