19
Iteration:   809
 C         2.675400         1.154383        -0.172350
 C         1.702617         0.033488         0.100302
 C         0.568284        -0.417392        -0.892916
 C         0.232077        -1.168174         0.314776
 C         0.585776         0.136714         1.165916
 O         1.082376        -0.044097         2.552520
 C         1.876976        -1.243609         2.743525
 O         2.717668        -1.678496         1.672334
 C         1.941062        -1.438616         0.431252
 H         3.561183         1.189480         0.431638
 H         2.977885         1.180879        -1.211839
 H         2.111901         2.105038        -0.171883
 H         0.025769         0.461501        -1.244049
 H         0.935968        -0.934898        -1.848370
 H        -0.611492        -1.993774         0.370335
 H        -0.074936         0.996382         1.217842
 H         2.462978        -1.037344         3.616509
 H         1.056762        -1.972129         2.797418
 H         2.206408        -2.103206        -0.341324
