19
Iteration:  1809charge 0 multiplicity 1
 C         2.817489         1.081832        -0.302202
 C         1.618598         0.176376         0.081635
 C         0.483206        -0.284637        -0.820451
 C         0.486997        -1.352750         0.344315
 C         0.583953         0.021529         1.224136
 O         1.002631        -0.078445         2.624921
 C         1.736202        -1.322811         2.708423
 O         2.617869        -1.572780         1.640464
 C         2.033257        -1.266614         0.353686
 H         3.445018         1.004356         0.560669
 H         3.391753         0.619572        -1.084504
 H         2.729990         2.166714        -0.619929
 H        -0.375206         0.343021        -0.870174
 H         0.738710        -0.612473        -1.835439
 H        -0.195193        -2.160384         0.672892
 H        -0.152896         0.794456         1.232577
 H         2.259054        -1.268347         3.666461
 H         0.975044        -2.210153         2.817819
 H         2.570892        -1.871560        -0.364399
