19
Iteration:  1527charge 0 multiplicity 1
 C         2.629129         1.128844        -0.142869
 C         1.665280         0.112946         0.081862
 C         0.508237        -0.334091        -0.929780
 C         0.434992        -1.308685         0.191308
 C         0.564378         0.056409         1.300417
 O         1.226849         0.038983         2.495969
 C         1.793088        -1.268731         2.837742
 O         2.557854        -1.734816         1.688208
 C         1.993887        -1.332939         0.356722
 H         3.118409         1.443347         0.740489
 H         3.333944         0.761449        -0.869107
 H         2.196480         2.083336        -0.637925
 H        -0.286296         0.378130        -1.147006
 H         0.778215        -0.916390        -1.923274
 H        -0.232644        -2.177353         0.414077
 H        -0.390371         0.564972         1.417166
 H         2.565295        -1.115182         3.570056
 H         0.976075        -2.012225         3.027868
 H         2.755799        -1.506667        -0.388768
