19
Iteration:  1229charge 0 multiplicity 1
 C         2.668021         1.213655        -0.142394
 C         1.674753         0.125540         0.053393
 C         0.526747        -0.423147        -0.870065
 C         0.438150        -1.318453         0.391340
 C         0.581759         0.046132         1.234260
 O         1.197806        -0.005793         2.457975
 C         1.728977        -1.291488         2.677195
 O         2.608444        -1.595317         1.684907
 C         1.956013        -1.377416         0.386309
 H         3.409545         1.062488         0.701515
 H         3.316373         1.016654        -1.000316
 H         2.276021         2.217374        -0.164444
 H        -0.249564         0.374869        -1.034259
 H         0.592364        -1.011602        -1.792464
 H        -0.190005        -2.196631         0.575332
 H        -0.153663         0.810227         1.210277
 H         2.357348        -1.233827         3.606596
 H         0.885428        -2.059011         2.666355
 H         2.402664        -2.040165        -0.322252
