19
Iteration:   763
 C         2.848026         1.289008        -0.245818
 C         1.698371         0.132912         0.047140
 C         0.373578        -0.477912        -0.928119
 C         0.415223        -1.318559         0.369327
 C         0.614389         0.092899         1.233698
 O         1.155550         0.076159         2.589005
 C         1.721406        -1.380067         2.752331
 O         2.577748        -1.695279         1.671350
 C         2.005701        -1.370077         0.376911
 H         3.566498         1.285922         0.636117
 H         3.378860         1.114141        -1.132611
 H         2.395826         2.257705        -0.516611
 H        -0.615628         0.009835        -0.948425
 H         0.477655        -1.028960        -1.945155
 H        -0.422460        -2.142379         0.600824
 H        -0.169007         0.900517         1.187194
 H         2.452035        -1.201816         3.624029
 H         0.838978        -2.039161         2.836745
 H         2.683031        -1.850685        -0.276080
