19
Iteration:  2188
 C         2.800412         1.161859        -0.217714
 C         1.630604         0.231966         0.016874
 C         0.479725        -0.376613        -0.919129
 C         0.483997        -1.282816         0.397657
 C         0.609640         0.050918         1.232842
 O         1.124137        -0.090775         2.544810
 C         1.694749        -1.361258         2.699217
 O         2.612195        -1.593309         1.679423
 C         1.969799        -1.281057         0.403311
 H         3.480014         0.973584         0.664468
 H         3.362233         0.731164        -1.091962
 H         2.286128         2.134154        -0.192859
 H        -0.351932         0.315123        -1.153141
 H         0.878024        -0.969517        -1.741451
 H        -0.142943        -2.169936         0.517228
 H        -0.253601         0.774547         1.325992
 H         2.089027        -1.411027         3.767968
 H         0.833891        -2.158628         2.806017
 H         2.449368        -1.966022        -0.353284
