19
Iteration:   926charge 0 multiplicity 1
 C         2.716855         1.336483        -0.290350
 C         1.769504         0.116093         0.016344
 C         0.613328        -0.443577        -0.868603
 C         0.388645        -1.216610         0.441105
 C         0.590911         0.129747         1.233298
 O         1.061635        -0.095043         2.516229
 C         1.818944        -1.306577         2.749885
 O         2.613674        -1.734026         1.658597
 C         1.864517        -1.446004         0.443815
 H         3.273058         1.708801         0.627282
 H         3.370783         1.201042        -1.126692
 H         1.912659         2.040095        -0.618125
 H        -0.189739         0.244320        -1.074402
 H         0.817186        -1.045302        -1.773967
 H        -0.349467        -1.960956         0.565028
 H        -0.073098         1.058869         1.198727
 H         2.416329        -1.008866         3.641046
 H         1.023253        -1.962671         2.973147
 H         2.280425        -2.036906        -0.418603
