19
Iteration:   428
 C         2.691725         1.218843        -0.242935
 C         1.688161         0.094185         0.067695
 C         0.561880        -0.353757        -0.908104
 C         0.332064        -1.234819         0.394497
 C         0.594958         0.016237         1.194730
 O         1.118165        -0.021288         2.543243
 C         1.773900        -1.193658         2.805709
 O         2.647695        -1.648860         1.657493
 C         1.935936        -1.494765         0.395210
 H         3.497536         0.895130         0.488135
 H         3.132339         1.105211        -1.222386
 H         2.396753         2.322068        -0.271515
 H        -0.150258         0.428486        -1.143575
 H         0.851445        -0.967613        -1.829494
 H        -0.445002        -1.902758         0.547362
 H        -0.140425         0.843217         0.991239
 H         2.410207        -1.425744         3.666294
 H         1.087650        -2.094111         2.912381
 H         2.597293        -2.090450        -0.333552
