19
Iteration:  4225charge 0 multiplicity 1
 C         2.728440         1.177075        -0.180628
 C         1.762331         0.067043         0.018983
 C         0.586891        -0.451292        -0.892737
 C         0.436601        -1.210719         0.397825
 C         0.696269         0.063229         1.134794
 O         1.052962         0.007744         2.477741
 C         1.634173        -1.286645         2.811186
 O         2.459665        -1.714393         1.715162
 C         2.117604        -1.288758         0.406696
 H         3.157061         1.362736         0.784280
 H         3.565444         0.810711        -0.872718
 H         2.224416         2.037088        -0.650797
 H        -0.262036         0.294121        -1.110831
 H         0.776577        -0.837805        -1.916548
 H        -0.350361        -2.037708         0.549794
 H        -0.183609         0.769698         1.086505
 H         2.360314        -1.158851         3.716225
 H         0.747319        -1.888763         2.815183
 H         2.650037        -1.868926        -0.344569
