19
Iteration:  4739
 C         2.801890         1.162006        -0.194977
 C         1.738398         0.153223         0.000813
 C         0.602964        -0.486880        -1.000426
 C         0.395600        -1.270085         0.381096
 C         0.582217         0.061057         1.146947
 O         1.083731         0.003515         2.531030
 C         1.698019        -1.224979         2.807238
 O         2.514991        -1.673485         1.759270
 C         1.969068        -1.379140         0.391190
 H         3.467025         1.326971         0.652062
 H         3.318231         1.430854        -1.087371
 H         2.214751         2.022854         0.066292
 H        -0.196488         0.112071        -1.282905
 H         1.012312        -1.073715        -1.858693
 H        -0.205617        -2.117474         0.677312
 H        -0.117726         0.888951         1.149791
 H         2.286850        -0.992577         3.628412
 H         0.968771        -2.004146         2.769177
 H         2.645687        -2.041547        -0.246499
