19
Iteration:  2522
 C         2.730505         1.220992        -0.233646
 C         1.827279         0.097806         0.061403
 C         0.617884        -0.419417        -0.946402
 C         0.349408        -1.142897         0.391755
 C         0.608985         0.082369         1.252270
 O         1.083916        -0.141755         2.565146
 C         1.725075        -1.418084         2.751196
 O         2.623449        -1.527263         1.642092
 C         1.867206        -1.394594         0.434009
 H         3.307177         1.746285         0.431026
 H         3.452638         1.042466        -1.094582
 H         2.138131         2.046999        -0.619599
 H        -0.264852         0.207260        -1.227578
 H         0.964777        -0.941649        -1.768638
 H        -0.484471        -1.910791         0.590216
 H        -0.058785         0.943127         1.302060
 H         2.196676        -1.386028         3.726081
 H         0.967784        -2.203550         2.678384
 H         2.186746        -2.137736        -0.360761
