19
Iteration:  2519
 C         2.727721         1.195595        -0.267528
 C         1.804638         0.106540         0.057340
 C         0.614505        -0.377354        -0.948301
 C         0.332540        -1.160519         0.372409
 C         0.608607         0.072888         1.274198
 O         1.090378        -0.163316         2.550833
 C         1.726023        -1.429806         2.785847
 O         2.640112        -1.516322         1.662840
 C         1.862991        -1.367045         0.444179
 H         3.347773         1.726221         0.477115
 H         3.568719         0.991732        -1.019712
 H         2.159113         2.093457        -0.674841
 H        -0.268458         0.206679        -1.295704
 H         1.035509        -0.925615        -1.931192
 H        -0.382190        -1.938371         0.615434
 H        -0.128681         0.969973         1.235756
 H         2.247497        -1.363161         3.812085
 H         0.987722        -2.191185         2.629537
 H         2.059449        -2.163080        -0.384093
