19
Iteration:  1844
 C         2.722786         1.123096        -0.192926
 C         1.662090         0.160801         0.066592
 C         0.595059        -0.340193        -0.918421
 C         0.331383        -1.277689         0.394885
 C         0.592746         0.013197         1.235591
 O         1.114759        -0.067378         2.559852
 C         1.736633        -1.327272         2.709372
 O         2.656154        -1.531994         1.614316
 C         1.950911        -1.362960         0.408339
 H         3.245656         1.177621         0.751576
 H         3.319607         0.562903        -0.924838
 H         2.360478         2.148252        -0.529839
 H        -0.180985         0.352367        -1.113566
 H         1.014219        -0.741296        -1.835946
 H        -0.427291        -2.068636         0.753210
 H        -0.151194         0.811853         1.215034
 H         2.381526        -1.375406         3.656556
 H         0.959543        -2.161968         2.611359
 H         2.481053        -1.961605        -0.316750
