19
Iteration:  2559charge 0 multiplicity 1
 C         2.723459         1.275111        -0.101254
 C         1.658080         0.139898         0.060184
 C         0.538560        -0.385744        -0.906435
 C         0.511934        -1.270451         0.372014
 C         0.590089         0.058484         1.157141
 O         1.216976         0.035692         2.468116
 C         1.651158        -1.280297         2.745674
 O         2.569358        -1.795411         1.683602
 C         1.970780        -1.379237         0.404762
 H         3.629820         1.180158         0.617478
 H         3.028489         1.186013        -1.111770
 H         2.016119         2.083258         0.022499
 H        -0.353105         0.205322        -0.968114
 H         0.704645        -0.842092        -1.922399
 H        -0.171739        -2.102978         0.499237
 H        -0.271663         0.754989         1.084866
 H         2.293154        -1.253335         3.647123
 H         0.773850        -1.997797         2.760519
 H         2.483256        -1.935437        -0.347774
