19
Iteration:  4787charge 0 multiplicity 1
 C         2.631015         1.258610        -0.137892
 C         1.780074         0.025752        -0.043404
 C         0.639567        -0.468070        -0.986986
 C         0.436396        -1.225189         0.309749
 C         0.594097         0.077759         1.117626
 O         1.207425         0.055175         2.457792
 C         1.603938        -1.280308         2.840191
 O         2.568159        -1.729902         1.755998
 C         1.938619        -1.392758         0.549797
 H         3.466043         1.399677         0.556776
 H         3.087944         1.234158        -1.169738
 H         2.107999         2.248859        -0.105816
 H        -0.035223         0.393229        -1.130967
 H         0.934844        -0.979151        -1.888501
 H        -0.343173        -1.987083         0.476669
 H        -0.167985         0.898985         1.238629
 H         2.229995        -1.252286         3.777835
 H         0.809131        -1.912790         2.670903
 H         2.456407        -2.184594        -0.140307
