19
Iteration:   969
 C         2.798089         1.206075        -0.243613
 C         1.647391         0.163557         0.016495
 C         0.465052        -0.424237        -0.841549
 C         0.423613        -1.382225         0.319889
 C         0.568651         0.084679         1.254498
 O         1.192540         0.058983         2.580325
 C         1.730383        -1.296568         2.676228
 O         2.633903        -1.662734         1.684537
 C         1.946277        -1.347049         0.409025
 H         3.508755         1.037017         0.681507
 H         3.391206         1.049894        -1.130722
 H         2.295325         2.177173        -0.071354
 H        -0.401606         0.168226        -1.055780
 H         0.811408        -0.750946        -1.801456
 H        -0.165557        -2.215780         0.384813
 H        -0.513905         0.477131         1.245303
 H         2.221645        -1.297330         3.715329
 H         0.769492        -1.962864         2.643509
 H         2.349222        -2.050679        -0.443922
