19
Iteration:  4244
 C         2.682496         1.335768        -0.184137
 C         1.717835         0.160279         0.049458
 C         0.711426        -0.434239        -0.919258
 C         0.421470        -1.253884         0.370886
 C         0.631418         0.091028         1.106881
 O         1.189560         0.035557         2.446587
 C         1.620818        -1.254273         2.769002
 O         2.494562        -1.830065         1.746907
 C         1.937079        -1.491505         0.501784
 H         3.140679         1.619151         0.787888
 H         3.510701         1.204422        -0.940284
 H         2.124802         2.146924        -0.672230
 H        -0.129577         0.223109        -1.351062
 H         1.039972        -1.006867        -1.762295
 H        -0.264268        -2.087375         0.577656
 H        -0.118642         0.856571         1.112598
 H         2.292971        -1.033201         3.583383
 H         0.754925        -1.971638         2.960021
 H         2.468505        -2.066097        -0.230625
