19
Iteration:  4653charge 0 multiplicity 1
 C         2.786742         1.170741        -0.193007
 C         1.731092         0.133631         0.115181
 C         0.585249        -0.485333        -0.873340
 C         0.370239        -1.288838         0.345372
 C         0.628708         0.082337         1.151800
 O         1.063094         0.047804         2.478256
 C         1.657700        -1.275749         2.705168
 O         2.603131        -1.632953         1.733839
 C         1.974798        -1.355091         0.415224
 H         3.197995         1.568464         0.800187
 H         3.547672         0.600948        -0.779638
 H         2.245070         2.033091        -0.693914
 H        -0.137430         0.268074        -1.137340
 H         0.929362        -1.118108        -1.777910
 H        -0.176354        -2.176938         0.467726
 H        -0.077978         0.941668         0.992769
 H         2.047733        -1.255278         3.700256
 H         0.809182        -2.100611         2.818729
 H         2.576049        -2.156209        -0.284831
