19
Iteration:  4194
 C         2.855662         1.085306        -0.187507
 C         1.697614         0.103744         0.099864
 C         0.677946        -0.385771        -0.918768
 C         0.287582        -1.220112         0.368828
 C         0.562223         0.002309         1.212577
 O         0.997465        -0.025201         2.515744
 C         1.713101        -1.276400         2.688069
 O         2.623654        -1.453625         1.684536
 C         1.968732        -1.447886         0.455510
 H         3.539327         1.176731         0.635899
 H         3.416921         0.672441        -1.044326
 H         2.598544         2.048679        -0.663959
 H        -0.109760         0.334685        -1.125229
 H         1.186031        -0.852746        -1.859966
 H        -0.510474        -2.041351         0.389711
 H        -0.390523         0.655892         1.159211
 H         2.182988        -1.395812         3.746647
 H         0.893288        -2.065323         2.668886
 H         2.533362        -2.179818        -0.235011
