19
Iteration:  2810
 C         2.760333         1.104165        -0.127941
 C         1.710932         0.084542         0.035514
 C         0.597120        -0.371945        -0.845795
 C         0.354796        -1.262402         0.419825
 C         0.573626         0.147797         1.232604
 O         0.976449        -0.110044         2.491775
 C         1.740621        -1.283237         2.657532
 O         2.735445        -1.551462         1.592890
 C         1.942799        -1.407776         0.450199
 H         3.364707         0.854120         0.823361
 H         3.213276         0.945802        -1.038621
 H         2.335463         2.120336        -0.192129
 H        -0.147055         0.372890        -1.121337
 H         1.011163        -0.656148        -1.877313
 H        -0.483924        -1.958286         0.540333
 H         0.006238         1.101430         1.269999
 H         2.173166        -1.130950         3.710231
 H         1.080880        -2.185975         2.580142
 H         2.329557        -1.996948        -0.419317
