19
Iteration:  3256
 C         2.613049         1.323893        -0.111062
 C         1.735556         0.141895        -0.054149
 C         0.585049        -0.455316        -0.924269
 C         0.329865        -1.169601         0.424920
 C         0.716867         0.120718         1.080667
 O         1.200213        -0.072042         2.500772
 C         1.704437        -1.290739         2.756738
 O         2.581222        -1.817366         1.704803
 C         1.977829        -1.385341         0.439017
 H         3.148722         1.266675         0.864362
 H         3.235342         1.291479        -0.947156
 H         1.965279         2.159571        -0.123588
 H        -0.212907         0.253567        -1.181198
 H         0.885468        -0.943176        -1.838020
 H        -0.487746        -1.805925         0.713963
 H        -0.005563         1.036785         1.185194
 H         2.243691        -1.308096         3.720274
 H         0.815499        -2.057714         2.735705
 H         2.401262        -2.078689        -0.270164
