19
Iteration:   989charge 0 multiplicity 1
 C         2.716458         1.127330        -0.101208
 C         1.660550         0.138609         0.046745
 C         0.521284        -0.465947        -0.860109
 C         0.389353        -1.231135         0.516478
 C         0.658731         0.064610         1.144701
 O         1.113372        -0.076925         2.484236
 C         1.714459        -1.261445         2.690443
 O         2.607223        -1.556159         1.619040
 C         1.996600        -1.360018         0.336040
 H         3.637530         1.109807         0.553176
 H         3.065985         0.970548        -1.146478
 H         2.348479         2.157924        -0.021049
 H        -0.294497         0.275552        -1.044993
 H         0.662124        -1.061467        -1.724619
 H        -0.332344        -1.940761         0.773781
 H         0.015562         0.964485         1.194940
 H         2.375213        -1.216529         3.645058
 H         1.035151        -2.214469         2.816988
 H         2.503749        -2.040239        -0.484787
