19
Iteration:  4752
 C         2.726048         1.294671        -0.121769
 C         1.730671         0.085212         0.030045
 C         0.614259        -0.535261        -0.930822
 C         0.484294        -1.313934         0.338028
 C         0.665920         0.086716         1.123483
 O         1.122347         0.087291         2.527125
 C         1.633824        -1.231758         2.762734
 O         2.479090        -1.709200         1.676321
 C         1.980102        -1.373840         0.474949
 H         3.573565         0.967051         0.500538
 H         3.098746         1.105690        -1.145926
 H         2.331709         2.320641        -0.060778
 H        -0.205813         0.077162        -1.191945
 H         1.008278        -1.118965        -1.799009
 H        -0.263514        -2.063565         0.450069
 H        -0.216541         0.758295         1.057615
 H         2.283878        -1.272121         3.617166
 H         0.798331        -1.854773         3.098308
 H         2.382465        -2.089586        -0.404828
