19
Iteration:  2385
 C         2.691104         1.284648        -0.184160
 C         1.643816         0.143937         0.037155
 C         0.515061        -0.364173        -0.860122
 C         0.485643        -1.307287         0.243616
 C         0.665984         0.026006         1.157576
 O         1.178689         0.001241         2.516528
 C         1.749710        -1.277780         2.781746
 O         2.479430        -1.780904         1.705707
 C         2.018757        -1.345997         0.433737
 H         3.292653         0.952571         0.650434
 H         3.069043         1.178715        -1.145184
 H         2.287412         2.239834         0.053538
 H        -0.361863         0.297992        -0.805931
 H         0.811278        -0.641478        -1.930968
 H        -0.227051        -2.022666         0.375682
 H        -0.205828         0.677957         1.058191
 H         2.442086        -1.180593         3.552863
 H         0.964836        -1.986696         3.059099
 H         2.593833        -1.939930        -0.245195
