19
Iteration:   137
 C         2.727456         1.096704        -0.124584
 C         1.659263         0.157379         0.114107
 C         0.615860        -0.401046        -0.895108
 C         0.327450        -1.235603         0.292954
 C         0.603778         0.068009         1.165087
 O         0.939005        -0.096121         2.551798
 C         1.980502        -0.969365         2.815928
 O         2.547874        -1.822671         1.602068
 C         1.953086        -1.417337         0.391179
 H         3.532341         1.229392         0.618362
 H         3.265641         0.756754        -1.073497
 H         2.316662         2.113418        -0.345423
 H        -0.085918         0.438443        -1.103789
 H         1.003521        -0.862531        -1.811507
 H        -0.647383        -1.867005         0.595912
 H        -0.312502         0.620737         1.018681
 H         3.007630        -0.576893         3.132491
 H         1.762254        -1.839120         3.373894
 H         2.382663        -1.889956        -0.484946
