19
Iteration:  1244
 C         2.652714         1.170239        -0.168124
 C         1.594177         0.124816         0.144067
 C         0.618264        -0.334615        -0.802732
 C         0.424674        -1.316642         0.431605
 C         0.626536        -0.000675         1.159887
 O         1.207258         0.030275         2.471631
 C         1.709234        -1.242677         2.707908
 O         2.578998        -1.662799         1.587466
 C         1.998453        -1.412606         0.416898
 H         3.285867         1.486316         0.632754
 H         3.155363         0.830565        -1.052937
 H         2.073953         2.098216        -0.511978
 H        -0.283436         0.151279        -1.034023
 H         1.220683        -0.612251        -1.719682
 H        -0.363419        -2.024586         0.537148
 H        -0.389301         0.507252         1.130491
 H         2.283649        -1.265325         3.598349
 H         0.881266        -1.984707         2.835421
 H         2.507840        -1.902839        -0.539532
