19
Iteration:  1292charge 0 multiplicity 1
 C         2.648001         1.339453        -0.252664
 C         1.734267         0.070951         0.059915
 C         0.604883        -0.416745        -0.862242
 C         0.337750        -1.218155         0.457721
 C         0.711523         0.052037         1.190997
 O         1.027203        -0.160808         2.526831
 C         1.775523        -1.271074         2.735490
 O         2.622506        -1.626846         1.607081
 C         1.927106        -1.428847         0.387980
 H         3.049676         1.830927         0.675512
 H         3.510273         0.765129        -0.789727
 H         2.285701         2.052607        -0.947918
 H        -0.147528         0.413149        -1.182177
 H         0.847935        -0.975282        -1.748509
 H        -0.425127        -1.903675         1.137028
 H         0.113587         1.017719         1.282850
 H         2.339240        -0.943867         3.677638
 H         1.127696        -2.087780         2.970226
 H         2.468111        -2.088224        -0.333201
