19
Iteration:   125charge 0 multiplicity 1
 C         2.763779         1.176019        -0.259842
 C         1.734139         0.051495         0.116800
 C         0.593258        -0.297442        -0.903013
 C         0.308548        -1.262084         0.289898
 C         0.536026        -0.059450         1.197200
 O         1.006676        -0.047882         2.575449
 C         1.967052        -1.113012         2.825103
 O         2.521059        -1.756053         1.646510
 C         1.952654        -1.371809         0.392933
 H         3.519288         1.342079         0.538727
 H         3.269454         0.851685        -1.189045
 H         2.214214         2.130839        -0.483558
 H        -0.169483         0.417527        -1.216774
 H         1.013158        -0.845362        -1.782607
 H        -0.612302        -2.037905         0.271867
 H        -0.173086         0.774085         1.278603
 H         2.750737        -0.569986         3.471406
 H         1.393618        -1.738368         3.467895
 H         2.513051        -1.938953        -0.319838
