19
Iteration:  4900charge 0 multiplicity 1
 C         2.765482         1.194218        -0.119127
 C         1.765328         0.069666         0.073195
 C         0.615914        -0.467089        -0.874046
 C         0.425802        -1.241048         0.421246
 C         0.606910         0.168643         1.089709
 O         1.022703         0.001438         2.445127
 C         1.649980        -1.320910         2.718875
 O         2.657870        -1.645692         1.678712
 C         1.908780        -1.419759         0.454276
 H         3.333334         1.361200         0.829873
 H         3.303237         0.735746        -0.961200
 H         2.210135         2.087715        -0.495997
 H        -0.170136         0.261770        -1.199306
 H         0.987944        -0.992564        -1.657434
 H        -0.448301        -1.871087         0.792995
 H        -0.111806         0.982105         0.974690
 H         2.276976        -0.937100         3.536022
 H         0.982522        -2.094665         2.868986
 H         2.325961        -2.013913        -0.346236
