19
Iteration:  4923
 C         2.691344         1.256547        -0.189897
 C         1.723111         0.090918        -0.022628
 C         0.677644        -0.427613        -0.986584
 C         0.378789        -1.305801         0.279824
 C         0.615363         0.008642         1.172946
 O         1.231102         0.040504         2.569082
 C         1.625338        -1.186208         2.829561
 O         2.506473        -1.720044         1.736885
 C         1.965702        -1.398479         0.447153
 H         3.322143         1.104485         0.730778
 H         3.254719         1.103337        -1.134346
 H         2.198768         2.246160        -0.132635
 H        -0.060475         0.332535        -1.323084
 H         0.935253        -1.060461        -1.795166
 H        -0.477637        -2.039628         0.329723
 H        -0.164830         0.759750         1.257336
 H         2.272053        -1.205921         3.690730
 H         0.780548        -1.808845         2.894046
 H         2.450262        -1.998977        -0.280559
