19
Iteration:   766charge 0 multiplicity 1
 C         2.854564         1.297479        -0.246723
 C         1.699804         0.141033         0.044691
 C         0.398848        -0.487636        -0.900780
 C         0.404806        -1.311278         0.353947
 C         0.581161         0.088652         1.245744
 O         1.161662         0.064913         2.587921
 C         1.739917        -1.339765         2.775969
 O         2.561210        -1.698236         1.675340
 C         1.989596        -1.378717         0.338563
 H         3.571781         1.288381         0.541470
 H         3.365628         1.070328        -1.186527
 H         2.409175         2.289130        -0.462205
 H        -0.557857         0.021104        -0.934087
 H         0.543673        -1.009892        -1.886731
 H        -0.378858        -2.168354         0.508698
 H        -0.166835         0.860825         1.194841
 H         2.417447        -1.294422         3.572383
 H         0.916762        -2.082094         2.814295
 H         2.725685        -1.939714        -0.213051
