19
Iteration:  3264charge 0 multiplicity 1
 C         2.636009         1.324158        -0.116453
 C         1.780511         0.162695        -0.077489
 C         0.577916        -0.417700        -0.931790
 C         0.321400        -1.188008         0.421765
 C         0.715633         0.106971         1.217148
 O         1.145266        -0.023207         2.442448
 C         1.733349        -1.355754         2.743856
 O         2.562483        -1.775454         1.673960
 C         1.968518        -1.449068         0.463136
 H         3.142553         1.288682         0.918655
 H         3.448353         1.462457        -0.922969
 H         2.042992         2.238938        -0.153037
 H        -0.345973         0.191541        -1.325418
 H         0.790941        -1.211231        -1.648210
 H        -0.440913        -1.918017         0.729085
 H         0.026181         0.948486         1.035323
 H         2.297758        -1.269863         3.692417
 H         0.913639        -2.073696         2.955348
 H         2.440866        -2.065279        -0.297068
