19
Iteration:  4678charge 0 multiplicity 1
 C         2.901959         1.054438        -0.225766
 C         1.651098         0.172595        -0.051137
 C         0.576694        -0.428675        -0.917028
 C         0.458397        -1.242984         0.350954
 C         0.529285         0.007306         1.157547
 O         0.990155        -0.060826         2.577691
 C         1.696576        -1.249622         2.780126
 O         2.597173        -1.514411         1.691206
 C         1.999015        -1.323503         0.453071
 H         3.231809         1.268913         0.816487
 H         3.669549         0.399863        -0.710791
 H         2.678616         2.026217        -0.780554
 H        -0.348517         0.272894        -1.046622
 H         0.826496        -0.933445        -1.882225
 H        -0.253323        -2.056377         0.624996
 H        -0.196005         0.858729         1.148090
 H         2.153948        -1.360225         3.821833
 H         0.988208        -2.102381         2.845530
 H         2.527550        -2.020070        -0.218729
