19
Iteration:  2801
 C         2.714315         1.084793        -0.099951
 C         1.676477         0.062133         0.110718
 C         0.611439        -0.362174        -0.857103
 C         0.342867        -1.249577         0.364540
 C         0.595322         0.146257         1.138554
 O         1.012404        -0.040900         2.524720
 C         1.772634        -1.314648         2.613081
 O         2.709621        -1.568493         1.633486
 C         1.951514        -1.384653         0.395426
 H         3.488822         0.997515         0.751022
 H         3.322599         0.957718        -1.006465
 H         2.214754         2.071352         0.138192
 H        -0.141928         0.330840        -0.891085
 H         0.926162        -0.978348        -1.731456
 H        -0.366600        -1.990582         0.613762
 H        -0.208122         1.033472         1.176343
 H         2.317394        -1.241964         3.590377
 H         1.028873        -2.110330         2.671870
 H         2.327275        -2.084895        -0.337621
