19
Iteration:  2489
 C         2.840629         1.097710        -0.283268
 C         1.673839         0.175751         0.134644
 C         0.516285        -0.324689        -0.847284
 C         0.441419        -1.231235         0.336164
 C         0.568804         0.050005         1.258456
 O         0.952554        -0.114867         2.598163
 C         1.744780        -1.309462         2.741346
 O         2.622234        -1.618777         1.601786
 C         2.064247        -1.282355         0.386613
 H         3.472873         1.449287         0.503100
 H         3.529143         0.403223        -0.840582
 H         2.399167         1.804462        -1.013703
 H        -0.433960         0.251478        -0.892020
 H         0.711024        -0.712355        -1.781866
 H        -0.391870        -2.005505         0.543710
 H        -0.292489         0.701945         1.103492
 H         2.398250        -1.274455         3.632210
 H         1.052365        -2.166241         2.793154
 H         2.592227        -1.801652        -0.466883
