19
Iteration:  1240
 C         2.629632         1.165644        -0.149213
 C         1.641836         0.131983         0.108416
 C         0.598173        -0.338726        -0.786106
 C         0.463499        -1.306553         0.429574
 C         0.612491         0.010368         1.160411
 O         1.210002         0.022442         2.444136
 C         1.713335        -1.264612         2.685884
 O         2.577715        -1.629169         1.587907
 C         1.954025        -1.426353         0.413510
 H         3.332485         1.381002         0.724426
 H         3.092708         0.813562        -1.084072
 H         2.182586         2.106441        -0.440317
 H        -0.359127         0.220182        -0.996903
 H         1.209268        -0.722984        -1.610482
 H        -0.285861        -2.085954         0.575904
 H        -0.322521         0.491158         1.211605
 H         2.217521        -1.232772         3.693676
 H         0.860597        -2.008544         2.872178
 H         2.553434        -1.895943        -0.318452
