19
Iteration:  3329charge 0 multiplicity 1
 C         2.954930         1.136481        -0.201327
 C         1.620113         0.156350         0.045122
 C         0.487273        -0.319720        -0.898756
 C         0.359403        -1.282579         0.380412
 C         0.596678        -0.017735         1.223277
 O         1.037807        -0.110704         2.543529
 C         1.742001        -1.310273         2.723034
 O         2.652721        -1.536102         1.611433
 C         1.920294        -1.308302         0.464630
 H         3.333219         1.091281         0.855554
 H         3.558808         0.611693        -1.034491
 H         2.690186         2.099293        -0.639594
 H        -0.490380         0.302240        -1.132175
 H         0.815839        -0.887174        -1.783298
 H        -0.434443        -2.022644         0.566619
 H        -0.163350         0.757151         1.219767
 H         2.327463        -1.259478         3.636729
 H         1.110875        -2.179568         2.841954
 H         2.468842        -1.793192        -0.352193
