19
Iteration:  1315
 C         2.709605         1.120465        -0.247090
 C         1.664785         0.118993         0.056345
 C         0.586821        -0.366011        -0.871403
 C         0.436795        -1.281087         0.345070
 C         0.520677         0.047266         1.223641
 O         1.082547         0.004361         2.610461
 C         1.807324        -1.353211         2.705804
 O         2.691121        -1.606434         1.640649
 C         1.943890        -1.354074         0.400021
 H         2.959966         1.583499         0.779801
 H         3.610755         0.900141        -0.922384
 H         2.141456         1.883498        -0.733596
 H        -0.408080         0.230371        -0.975235
 H         0.822550        -0.750888        -1.859800
 H        -0.595785        -1.931175         0.396339
 H        -0.226034         0.852135         1.265416
 H         2.346368        -1.195843         3.695696
 H         0.998658        -2.042281         2.739526
 H         2.376138        -2.067590        -0.255417
