19
Iteration:  1911
 C         2.564298         1.210735        -0.084467
 C         1.590860         0.050627         0.136146
 C         0.623242        -0.330732        -1.011070
 C         0.434769        -1.269773         0.281358
 C         0.601986         0.012345         1.178372
 O         1.304424         0.089625         2.505585
 C         1.808175        -1.225023         2.776199
 O         2.475611        -1.822767         1.657367
 C         1.967909        -1.349809         0.409184
 H         3.317187         1.276543         0.733691
 H         3.212488         0.879132        -0.962292
 H         2.040159         2.166032        -0.163211
 H        -0.177791         0.383925        -0.951024
 H         1.046961        -0.533956        -1.956017
 H        -0.371506        -2.111251         0.334063
 H        -0.347102         0.513891         1.386978
 H         2.658755        -1.143091         3.544620
 H         0.942679        -1.956060         3.010393
 H         2.540364        -1.911186        -0.321360
