19
Iteration:   805
 C         2.647915         1.126692        -0.173171
 C         1.684864         0.027023         0.115550
 C         0.598160        -0.390722        -0.926517
 C         0.250847        -1.183416         0.358513
 C         0.557358         0.164831         1.148449
 O         1.090182        -0.040657         2.545999
 C         1.904708        -1.270836         2.727998
 O         2.684844        -1.675648         1.684537
 C         1.969507        -1.445740         0.421485
 H         3.630355         1.234441         0.419971
 H         2.886872         1.017437        -1.240535
 H         2.064589         2.077488        -0.124857
 H        -0.020510         0.495039        -1.196622
 H         0.981396        -0.818006        -1.886474
 H        -0.533687        -1.925067         0.471965
 H        -0.117320         1.082158         1.151361
 H         2.434335        -1.049529         3.736697
 H         1.059678        -1.964769         2.897022
 H         2.292423        -2.011953        -0.485603
