19
Iteration:  4383charge 0 multiplicity 1
 C         2.843625         1.094046        -0.220088
 C         1.728060         0.108629         0.002010
 C         0.633103        -0.412307        -0.915902
 C         0.469607        -1.277480         0.336766
 C         0.581476         0.117282         1.158136
 O         0.911816        -0.056299         2.527609
 C         1.701972        -1.257369         2.818698
 O         2.536470        -1.554296         1.699550
 C         2.006556        -1.420755         0.447660
 H         3.467587         1.186036         0.676970
 H         3.490006         0.900686        -1.039229
 H         2.420590         2.071104        -0.474216
 H        -0.185800         0.274308        -1.131526
 H         0.966390        -0.862061        -1.851019
 H        -0.351942        -1.979772         0.576316
 H        -0.093846         1.021411         1.164550
 H         2.404465        -0.907123         3.586858
 H         1.071784        -2.127429         3.071445
 H         2.492368        -2.214832        -0.247109
