19
Iteration:  3247charge 0 multiplicity 1
 C         2.614036         1.311821        -0.121831
 C         1.677730         0.050427         0.050518
 C         0.583418        -0.444576        -0.939435
 C         0.411504        -1.195461         0.381376
 C         0.649769         0.146166         1.069427
 O         1.264139        -0.015416         2.534790
 C         1.656723        -1.339383         2.732654
 O         2.574476        -1.784563         1.701812
 C         1.961621        -1.394426         0.433220
 H         3.359105         1.519818         0.630149
 H         3.198293         1.273035        -0.976464
 H         2.029228         2.259064        -0.161431
 H        -0.020170         0.374038        -1.048066
 H         0.994327        -0.894443        -1.865759
 H        -0.434366        -1.861165         0.542651
 H        -0.098403         0.962764         1.262331
 H         2.223761        -1.323043         3.664203
 H         0.814878        -2.078602         2.788444
 H         2.299925        -2.037877        -0.398476
