19
Iteration:  4652
 C         2.775879         1.175219        -0.191550
 C         1.734367         0.128357         0.103004
 C         0.598161        -0.483669        -0.868816
 C         0.373251        -1.280924         0.346132
 C         0.617846         0.072830         1.151741
 O         1.065183         0.051647         2.483218
 C         1.660152        -1.267246         2.711735
 O         2.599752        -1.638199         1.728000
 C         1.977354        -1.362286         0.417445
 H         3.183177         1.576567         0.785423
 H         3.526729         0.617703        -0.777125
 H         2.251894         2.024719        -0.669364
 H        -0.098840         0.264655        -1.119006
 H         0.929784        -1.110725        -1.752222
 H        -0.188643        -2.164642         0.491584
 H        -0.044486         0.941933         0.969285
 H         2.063711        -1.274613         3.683496
 H         0.771333        -2.089258         2.767763
 H         2.557581        -2.165937        -0.299119
