19
Iteration:   701
 C         2.680911         1.141613        -0.219526
 C         1.650517         0.156264        -0.008859
 C         0.568188        -0.382260        -0.932225
 C         0.366101        -1.229927         0.375312
 C         0.604766         0.104481         1.232086
 O         1.111739        -0.056954         2.575637
 C         1.857373        -1.244671         2.831821
 O         2.582700        -1.701914         1.634955
 C         1.931385        -1.382319         0.385092
 H         3.127253         1.371329         0.755176
 H         3.523639         0.665233        -0.778234
 H         2.373719         2.104494        -0.684305
 H        -0.304927         0.168775        -1.228765
 H         0.850124        -0.997463        -1.827841
 H        -0.466895        -1.994438         0.399459
 H        -0.056003         0.958408         1.263905
 H         2.686877        -0.973186         3.491391
 H         1.286858        -2.142986         3.269106
 H         2.389940        -1.960122        -0.497864
