19
Iteration:  1479charge 0 multiplicity 1
 C         2.674451         1.160793        -0.200249
 C         1.746652         0.050339         0.057715
 C         0.551042        -0.405426        -0.943309
 C         0.282668        -1.146997         0.473248
 C         0.678659         0.105722         1.159583
 O         0.998524        -0.078662         2.613267
 C         1.815437        -1.363597         2.694376
 O         2.715955        -1.575293         1.646737
 C         1.938056        -1.388798         0.391522
 H         2.885611         1.684933         0.777578
 H         3.542467         1.039226        -0.862267
 H         2.151953         1.921844        -0.713992
 H        -0.266880         0.300285        -1.171933
 H         0.894010        -0.869451        -1.812599
 H        -0.331882        -2.085478         0.604190
 H         0.081837         1.025822         1.080307
 H         2.387810        -1.278515         3.653224
 H         1.135797        -2.299593         2.573229
 H         2.281402        -2.103293        -0.382833
