19
Iteration:   442charge 0 multiplicity 1
 C         2.743065         1.151533        -0.104209
 C         1.684692         0.067870        -0.003547
 C         0.516248        -0.472753        -0.907280
 C         0.301081        -1.223120         0.374065
 C         0.627207         0.105433         1.170869
 O         1.171539        -0.024062         2.477109
 C         1.779391        -1.319010         2.691018
 O         2.663179        -1.568688         1.676800
 C         1.926778        -1.376963         0.467972
 H         3.459089         1.202117         0.676457
 H         3.244192         1.101262        -1.113974
 H         2.174808         2.088876         0.017573
 H        -0.308326         0.275597        -1.125577
 H         0.728460        -1.049035        -1.782232
 H        -0.526421        -1.972697         0.572535
 H        -0.169365         0.866370         1.367327
 H         2.346912        -1.040508         3.559324
 H         0.984785        -2.060660         2.794602
 H         2.212324        -2.105176        -0.204364
