19
Iteration:  2561charge 0 multiplicity 1
 C         2.731953         1.273557        -0.091920
 C         1.648785         0.149029         0.069993
 C         0.538635        -0.382553        -0.906451
 C         0.500897        -1.284098         0.352409
 C         0.585408         0.054603         1.156157
 O         1.240783         0.027315         2.463361
 C         1.653970        -1.278941         2.740214
 O         2.553387        -1.781984         1.696071
 C         1.977345        -1.385283         0.419874
 H         3.650115         1.207472         0.593505
 H         3.038583         1.205389        -1.146765
 H         2.018169         2.120738         0.037521
 H        -0.360274         0.236363        -0.980107
 H         0.649638        -0.890284        -1.969418
 H        -0.173678        -2.093618         0.464848
 H        -0.347311         0.712293         1.037924
 H         2.353707        -1.235995         3.636838
 H         0.773799        -1.984053         2.775399
 H         2.489903        -1.943918        -0.388117
