19
Iteration:  1426charge 0 multiplicity 1
 C         2.695703         1.199293        -0.249540
 C         1.609805         0.262182         0.105728
 C         0.541234        -0.473206        -0.837236
 C         0.514954        -1.319520         0.379811
 C         0.609881         0.116850         1.247742
 O         1.087036         0.015502         2.573160
 C         1.728438        -1.212151         2.682863
 O         2.565797        -1.810808         1.644163
 C         2.068407        -1.366923         0.341569
 H         3.415905         1.010157         0.606796
 H         3.123599         0.988558        -1.199881
 H         2.429087         2.289446        -0.221571
 H        -0.293669         0.275624        -0.942715
 H         0.855640        -0.867694        -1.840163
 H        -0.367423        -2.104661         0.415235
 H        -0.308125         0.664298         1.181335
 H         2.323936        -1.097078         3.590234
 H         1.100297        -2.063924         2.878486
 H         2.490762        -1.832790        -0.498779
