19
Iteration:   679charge 0 multiplicity 1
 C         2.820290         1.213249        -0.186082
 C         1.722272         0.153313         0.048276
 C         0.487280        -0.372465        -0.820601
 C         0.395382        -1.298183         0.393451
 C         0.555333         0.017795         1.162911
 O         1.067860        -0.072955         2.493656
 C         1.926149        -1.114477         2.755320
 O         2.502224        -1.773681         1.656255
 C         1.914149        -1.359744         0.373710
 H         3.500276         1.456212         0.640898
 H         3.495781         0.786828        -0.974920
 H         2.369526         2.169054        -0.570548
 H        -0.354800         0.295481        -0.964908
 H         0.672767        -0.859504        -1.836564
 H        -0.235338        -2.170553         0.780298
 H        -0.275318         0.730179         1.140327
 H         2.664026        -0.831967         3.493734
 H         1.273607        -1.966843         3.212065
 H         2.348193        -1.924956        -0.549223
