19
Iteration:  4556charge 0 multiplicity 1
 C         2.848504         1.129351        -0.153084
 C         1.742697        -0.001958         0.024422
 C         0.551623        -0.440925        -0.947730
 C         0.361077        -1.285507         0.319463
 C         0.543575         0.048555         1.172301
 O         1.022436         0.003219         2.492689
 C         1.683913        -1.264167         2.744147
 O         2.615855        -1.497253         1.773498
 C         1.993942        -1.394484         0.387070
 H         3.677350         1.213136         0.633613
 H         3.369908         0.919549        -1.094865
 H         2.315157         2.129533        -0.063791
 H        -0.066699         0.416247        -1.177401
 H         1.074216        -1.118121        -1.744740
 H        -0.430305        -1.912012         0.685263
 H        -0.145461         0.943612         1.186793
 H         2.211636        -1.214586         3.724549
 H         0.828071        -2.067963         2.791403
 H         2.680455        -1.876617        -0.265753
