19
Iteration:  4531charge 0 multiplicity 1
 C         2.859844         1.035996        -0.211291
 C         1.651571         0.132599        -0.018066
 C         0.629007        -0.443008        -0.859524
 C         0.458739        -1.266110         0.349547
 C         0.619362         0.130919         1.134479
 O         0.891349        -0.113087         2.537043
 C         1.657447        -1.252507         2.724468
 O         2.662665        -1.428105         1.670678
 C         1.947963        -1.426812         0.511773
 H         3.446931         0.982916         0.775670
 H         3.579932         0.654515        -1.012956
 H         2.589676         2.138695        -0.212221
 H        -0.237221         0.235363        -0.964777
 H         1.043114        -1.007412        -1.758679
 H        -0.392240        -1.795932         0.625444
 H        -0.078051         0.945410         1.184737
 H         2.224660        -1.115579         3.590930
 H         0.989011        -2.141605         2.635368
 H         2.511314        -2.147498        -0.270840
