19
Iteration:  1234
 C         2.627413         1.179548        -0.131991
 C         1.702967         0.150215         0.073105
 C         0.548457        -0.375549        -0.818344
 C         0.483848        -1.315368         0.404581
 C         0.590629         0.025068         1.210157
 O         1.206867         0.005202         2.432330
 C         1.721743        -1.290839         2.676577
 O         2.591388        -1.599773         1.642798
 C         1.907930        -1.403510         0.397246
 H         3.340757         1.132842         0.666594
 H         3.198050         0.877256        -1.036540
 H         2.253219         2.230722        -0.302628
 H        -0.256951         0.309382        -0.997120
 H         0.886725        -0.985303        -1.715574
 H        -0.195291        -2.159851         0.600895
 H        -0.313701         0.752041         1.271579
 H         2.245127        -1.199372         3.600870
 H         0.909276        -2.010150         2.743639
 H         2.604135        -2.048340        -0.278563
