19
Iteration:  2824charge 0 multiplicity 1
 C         2.864581         1.145097        -0.190161
 C         1.685536         0.145660         0.054825
 C         0.539147        -0.352511        -0.937240
 C         0.349312        -1.200078         0.401026
 C         0.619799         0.014766         1.187182
 O         0.988114        -0.151897         2.585762
 C         1.741727        -1.333034         2.733304
 O         2.657063        -1.503557         1.639078
 C         1.936719        -1.358618         0.389425
 H         3.601607         1.270945         0.615687
 H         3.470923         0.744694        -1.042853
 H         2.484754         2.203503        -0.376477
 H        -0.252695         0.299973        -1.134289
 H         0.842101        -1.066372        -1.696405
 H        -0.377606        -1.965154         0.567427
 H        -0.292944         0.761078         1.192875
 H         2.361281        -1.253945         3.614152
 H         1.055095        -2.182796         2.812135
 H         2.375595        -2.039202        -0.314431
