19
Iteration:   783charge 0 multiplicity 1
 C         2.706456         1.175773        -0.264119
 C         1.664104         0.157304         0.045594
 C         0.593016        -0.348048        -0.853009
 C         0.425135        -1.301364         0.416105
 C         0.643035        -0.009918         1.220004
 O         1.151400        -0.028645         2.526940
 C         1.758260        -1.234638         2.753582
 O         2.537709        -1.671287         1.628663
 C         1.918972        -1.371182         0.422482
 H         3.526091         1.052369         0.519911
 H         3.147601         1.052471        -1.264042
 H         2.325313         2.214270        -0.277697
 H        -0.179871         0.378383        -1.193423
 H         0.986699        -0.898906        -1.735630
 H        -0.278073        -2.122395         0.575849
 H        -0.262882         0.655031         1.297219
 H         2.474853        -1.001453         3.646119
 H         0.937720        -1.931159         2.994099
 H         2.225094        -1.999021        -0.444300
