19
Iteration:  4177
 C         2.815834         0.974998        -0.176453
 C         1.708822         0.069940         0.080220
 C         0.632383        -0.405653        -0.924274
 C         0.366610        -1.261875         0.330351
 C         0.558463         0.157900         1.152091
 O         0.961547        -0.123695         2.542303
 C         1.701212        -1.275228         2.753427
 O         2.670443        -1.481361         1.691653
 C         1.970950        -1.275820         0.442412
 H         3.467506         0.892916         0.758051
 H         3.385548         0.680855        -1.061007
 H         2.364581         1.970212        -0.333379
 H        -0.005957         0.328754        -1.429410
 H         0.917910        -1.088630        -1.681080
 H        -0.447490        -1.895815         0.509772
 H        -0.048752         1.027086         1.139818
 H         2.239466        -1.059119         3.595591
 H         1.054324        -2.149125         2.756862
 H         2.342311        -1.816598        -0.393447
