19
Iteration:  3303charge 0 multiplicity 1
 C         2.746692         1.084288        -0.140613
 C         1.598245         0.089891         0.118514
 C         0.551521        -0.293575        -0.870260
 C         0.409783        -1.252007         0.329208
 C         0.570078         0.041367         1.243505
 O         1.107672        -0.001954         2.505664
 C         1.769919        -1.283367         2.699169
 O         2.629486        -1.654731         1.656948
 C         1.979633        -1.347116         0.370399
 H         3.148981         1.185768         0.836479
 H         3.377576         0.587003        -0.913800
 H         2.346527         2.027613        -0.646345
 H        -0.139132         0.449174        -1.185618
 H         0.995491        -0.846439        -1.755954
 H        -0.365175        -2.062326         0.284507
 H        -0.259996         0.787395         1.179893
 H         2.435578        -1.149112         3.589049
 H         0.988241        -2.105800         2.948666
 H         2.602056        -1.821196        -0.440635
