19
Iteration:  2375charge 0 multiplicity 1
 C         2.680277         1.213564        -0.202560
 C         1.688345         0.180620         0.016524
 C         0.539888        -0.252729        -0.921178
 C         0.463660        -1.297715         0.295866
 C         0.583443         0.004122         1.171800
 O         1.180985        -0.084933         2.513356
 C         1.740852        -1.275106         2.867863
 O         2.531640        -1.698308         1.700545
 C         1.974673        -1.416478         0.412904
 H         3.594656         1.249348         0.363548
 H         3.155870         1.141620        -1.141683
 H         2.320714         2.244488        -0.124561
 H        -0.336732         0.337663        -1.085397
 H         0.852636        -0.771014        -1.898581
 H        -0.224060        -2.053078         0.404804
 H        -0.291620         0.604637         1.425322
 H         2.330569        -1.128650         3.734311
 H         0.951157        -2.014710         2.996728
 H         2.626974        -1.941149        -0.297081
