19
Iteration:  2219charge 0 multiplicity 1
 C         2.636736         1.182897        -0.075373
 C         1.716777         0.086396         0.120490
 C         0.583087        -0.316058        -0.902692
 C         0.409986        -1.299772         0.387094
 C         0.637877         0.011371         1.198453
 O         1.142224         0.056299         2.489838
 C         1.744880        -1.228061         2.710399
 O         2.575628        -1.744154         1.658528
 C         1.972484        -1.416739         0.350468
 H         3.463742         1.374932         0.689047
 H         3.053928         1.179130        -1.174185
 H         1.946740         2.063533         0.085088
 H        -0.108349         0.551606        -1.326782
 H         0.936230        -0.832394        -1.808822
 H        -0.350425        -2.132862         0.552798
 H        -0.184506         0.727811         0.981299
 H         2.506708        -1.201463         3.543750
 H         0.939974        -1.964877         2.619475
 H         2.327431        -1.986851        -0.503041
