19
Iteration:   479
 C         2.786566         1.108872        -0.001674
 C         1.679909         0.114200         0.004646
 C         0.461430        -0.458046        -0.901621
 C         0.367663        -1.307368         0.364233
 C         0.532600         0.009995         1.277093
 O         1.185551         0.112996         2.508985
 C         1.777666        -1.196357         2.661548
 O         2.635952        -1.630386         1.587213
 C         1.951217        -1.394906         0.384683
 H         3.290743         1.271646         1.001717
 H         3.592482         0.933765        -0.760662
 H         2.374826         2.059190        -0.383415
 H        -0.458411         0.130883        -1.040771
 H         0.770879        -1.028168        -1.825670
 H        -0.510751        -2.093912         0.485453
 H        -0.308333         0.688944         1.122226
 H         2.504384        -1.189990         3.541978
 H         0.936537        -1.916748         2.814887
 H         2.419017        -2.071190        -0.469850
