19
Iteration:  3974charge 0 multiplicity 1
 C         2.731500         1.093272        -0.140977
 C         1.684277         0.068556         0.021582
 C         0.612206        -0.325266        -0.978982
 C         0.435666        -1.320657         0.304272
 C         0.598518         0.052449         1.156948
 O         1.049419         0.017234         2.561278
 C         1.719971        -1.319833         2.777217
 O         2.634000        -1.510483         1.706814
 C         1.940466        -1.400464         0.404222
 H         3.406769         0.870988         0.689091
 H         3.258511         0.953239        -1.120147
 H         2.346762         2.065387         0.043483
 H        -0.238440         0.326435        -1.114231
 H         0.835609        -0.872781        -1.849769
 H        -0.398047        -1.994940         0.396538
 H        -0.190419         0.816621         1.227267
 H         2.292922        -1.179577         3.682960
 H         0.988199        -2.154198         2.936267
 H         2.528634        -2.092372        -0.219146
