19
Iteration:  3457charge 0 multiplicity 1
 C         2.671708         1.201809        -0.118559
 C         1.670821         0.051142         0.021643
 C         0.612036        -0.338407        -0.906865
 C         0.361527        -1.203297         0.384929
 C         0.671029         0.082505         1.161145
 O         1.137829        -0.044645         2.526904
 C         1.737307        -1.295215         2.770985
 O         2.631046        -1.608672         1.633408
 C         1.935138        -1.473886         0.413858
 H         3.138157         1.259679         0.834466
 H         3.410583         0.700484        -0.769126
 H         2.063419         2.091882        -0.362324
 H        -0.206608         0.336023        -1.160857
 H         0.924048        -0.982498        -1.780227
 H        -0.616798        -1.783079         0.287460
 H        -0.125937         0.912076         1.267757
 H         2.382989        -1.171985         3.646462
 H         1.028239        -2.084978         2.718937
 H         2.227079        -2.102298        -0.478296
