19
Iteration:  2755
 C         2.657344         1.281375        -0.052283
 C         1.670433         0.176434         0.045125
 C         0.549715        -0.402021        -0.951429
 C         0.472532        -1.257891         0.343327
 C         0.624033         0.060151         1.143450
 O         1.180967         0.084943         2.438513
 C         1.789092        -1.333325         2.759120
 O         2.481764        -1.852505         1.673560
 C         1.984301        -1.375943         0.446512
 H         3.562447         1.158849         0.701812
 H         2.993794         1.059172        -1.011927
 H         2.137464         2.227335         0.086376
 H        -0.280800         0.285516        -1.070529
 H         1.027780        -0.964998        -1.787092
 H        -0.326266        -2.036105         0.438827
 H        -0.247812         0.788870         1.209212
 H         2.421607        -1.176263         3.695581
 H         0.932770        -1.988615         2.979981
 H         2.641832        -1.844096        -0.351943
