19
Iteration:  1850
 C         2.662795         1.134615        -0.154830
 C         1.659744         0.150310        -0.000878
 C         0.607849        -0.392413        -0.918111
 C         0.333054        -1.238002         0.434815
 C         0.698328         0.076680         1.252800
 O         1.064248        -0.102156         2.547635
 C         1.766921        -1.310981         2.705149
 O         2.653611        -1.583260         1.618526
 C         1.934253        -1.354602         0.412908
 H         3.192388         1.268771         0.823302
 H         3.381670         0.755833        -0.926144
 H         2.457962         2.132057        -0.476546
 H        -0.209442         0.358173        -1.211226
 H         0.951155        -0.823350        -1.902810
 H        -0.346383        -2.023887         0.602614
 H        -0.119388         0.818819         1.193881
 H         2.300077        -1.299810         3.605863
 H         0.990657        -2.066146         2.789859
 H         2.396039        -1.923633        -0.443605
