19
Iteration:  1956charge 0 multiplicity 1
 C         2.713212         1.196057        -0.134601
 C         1.716621         0.107178         0.002989
 C         0.501224        -0.420639        -0.896004
 C         0.381246        -1.194686         0.485737
 C         0.674031         0.129544         1.157125
 O         1.006176        -0.089172         2.560806
 C         1.728495        -1.351247         2.665859
 O         2.682215        -1.628942         1.621559
 C         1.979149        -1.360423         0.376350
 H         3.514452         1.358704         0.657582
 H         3.468753         1.081478        -0.963318
 H         2.170760         2.102646        -0.219451
 H        -0.223081         0.344311        -1.149218
 H         0.632431        -1.168255        -1.613015
 H        -0.331696        -1.937882         0.966773
 H         0.060721         1.043103         1.257956
 H         2.348103        -1.357916         3.559452
 H         0.959303        -2.176770         2.490497
 H         2.492921        -2.052321        -0.302741
