19
Iteration:  1950
 C         2.725965         1.218856        -0.111618
 C         1.727998         0.184595        -0.004821
 C         0.511650        -0.475724        -0.900592
 C         0.410344        -1.232751         0.476092
 C         0.653142         0.124613         1.175510
 O         1.062663        -0.078041         2.548426
 C         1.741397        -1.351844         2.653973
 O         2.635636        -1.653123         1.617229
 C         1.944338        -1.375383         0.422858
 H         3.438375         1.287619         0.721157
 H         3.333399         1.078361        -1.006729
 H         2.183648         2.207715        -0.271777
 H        -0.242123         0.342887        -1.031838
 H         0.698121        -1.036232        -1.913944
 H        -0.334340        -1.849899         0.908743
 H        -0.070016         0.953197         1.095022
 H         2.321905        -1.265427         3.575181
 H         0.965497        -2.096947         2.595432
 H         2.392407        -2.017095        -0.364313
