19
Iteration:  1477charge 0 multiplicity 1
 C         2.656607         1.167259        -0.198639
 C         1.748999         0.055044         0.038340
 C         0.547767        -0.389324        -0.951686
 C         0.266934        -1.154032         0.456907
 C         0.679455         0.107742         1.169175
 O         1.006957        -0.078243         2.622390
 C         1.805861        -1.361734         2.694281
 O         2.723348        -1.567696         1.646843
 C         1.949442        -1.416336         0.427615
 H         2.882098         1.624305         0.803748
 H         3.545787         0.952368        -0.918678
 H         2.189239         1.965603        -0.728526
 H        -0.298794         0.278788        -1.185855
 H         0.901700        -0.857758        -1.823530
 H        -0.287905        -2.048112         0.562390
 H         0.089818         1.074265         1.060478
 H         2.394740        -1.344030         3.671189
 H         1.147418        -2.279039         2.549626
 H         2.326941        -2.117146        -0.429460
