19
Iteration:   228
 C         2.791890         1.206847        -0.200371
 C         1.695124         0.184375         0.095806
 C         0.603058        -0.369953        -0.940423
 C         0.388221        -1.251327         0.285461
 C         0.650120         0.048199         1.227802
 O         0.845343        -0.234217         2.608551
 C         2.145352        -0.908736         2.680739
 O         2.325874        -1.883449         1.717076
 C         1.914299        -1.420265         0.397291
 H         3.645541         1.208289         0.509157
 H         3.218091         0.981998        -1.262663
 H         2.350007         2.211368        -0.122578
 H        -0.246721         0.292043        -1.200572
 H         1.166692        -0.837915        -1.723543
 H        -0.270815        -2.021840         0.373188
 H        -0.085681         0.830558         1.262521
 H         2.937802        -0.123983         2.538150
 H         2.259986        -1.420272         3.713590
 H         2.439490        -2.109036        -0.352309
