19
Iteration:  2223
 C         2.604118         1.180964        -0.074100
 C         1.721947         0.062931         0.093312
 C         0.590951        -0.326887        -0.926799
 C         0.418012        -1.252211         0.379989
 C         0.641982         0.040222         1.189675
 O         1.147511         0.020019         2.491961
 C         1.763819        -1.212584         2.735917
 O         2.568470        -1.750127         1.662496
 C         1.963819        -1.420898         0.352206
 H         3.329003         1.330130         0.718055
 H         3.023726         1.359876        -1.035378
 H         2.018284         2.117990         0.067299
 H        -0.034508         0.429063        -1.229157
 H         0.911245        -0.868049        -1.828396
 H        -0.223486        -2.063531         0.499233
 H        -0.156437         0.791280         1.051878
 H         2.480759        -1.153630         3.535565
 H         0.930642        -1.998400         2.740336
 H         2.248345        -2.109168        -0.497097
