19
Iteration:  4715
 C         2.764695         1.078842        -0.204272
 C         1.758376         0.118601         0.101541
 C         0.653557        -0.411852        -0.927896
 C         0.341089        -1.231800         0.329489
 C         0.604186         0.057984         1.069689
 O         0.971530        -0.080834         2.553315
 C         1.711057        -1.229142         2.749948
 O         2.646659        -1.525044         1.702527
 C         1.953435        -1.408268         0.503347
 H         3.447207         1.178392         0.624004
 H         3.320249         0.736017        -1.053611
 H         2.501261         2.094879        -0.345500
 H        -0.212693         0.280695        -0.999732
 H         0.895946        -0.891270        -1.861506
 H        -0.465671        -2.014991         0.350115
 H        -0.110420         0.873904         1.024943
 H         2.371236        -0.927277         3.541328
 H         1.150865        -2.127645         2.776497
 H         2.207786        -2.181194        -0.114013
