19
Iteration:  4952
 C         2.660763         1.290778        -0.208797
 C         1.752718         0.118566         0.074569
 C         0.683825        -0.422540        -0.891705
 C         0.489500        -1.345861         0.337067
 C         0.673830         0.085494         1.180063
 O         1.166084         0.064875         2.446823
 C         1.678957        -1.194279         2.701762
 O         2.392853        -1.833002         1.755493
 C         1.976517        -1.382323         0.472798
 H         3.468266         1.141230         0.479146
 H         2.981544         1.174567        -1.232762
 H         2.122613         2.210196         0.029742
 H        -0.188220         0.245582        -1.118918
 H         0.965379        -0.938629        -1.858349
 H        -0.260129        -2.141243         0.418433
 H        -0.119924         0.852937         1.171456
 H         2.316022        -1.186717         3.654089
 H         0.671483        -1.798942         2.965388
 H         2.543593        -2.052939        -0.239311
