19
Iteration:  2123charge 0 multiplicity 1
 C         2.695657         1.133826        -0.223779
 C         1.651848         0.161202         0.021327
 C         0.517835        -0.314972        -0.874138
 C         0.387588        -1.252146         0.262180
 C         0.658046         0.042387         1.270145
 O         1.075437        -0.099733         2.589822
 C         1.761371        -1.270443         2.763730
 O         2.589336        -1.678624         1.639727
 C         2.016183        -1.314994         0.428253
 H         3.341457         1.405936         0.663147
 H         3.482778         0.759424        -0.893131
 H         2.358773         2.156787        -0.553936
 H        -0.195225         0.423693        -1.156395
 H         0.861317        -0.850120        -1.756371
 H        -0.350124        -2.036800         0.345401
 H        -0.152229         0.785878         1.187769
 H         2.504691        -1.299539         3.594752
 H         1.157281        -2.162568         3.006440
 H         2.523797        -1.931635        -0.386104
