19
Iteration:  3823
 C         2.781349         1.062978        -0.191156
 C         1.675042         0.074755         0.158627
 C         0.576906        -0.366044        -0.962720
 C         0.308562        -1.205125         0.348244
 C         0.565400         0.073426         1.155498
 O         1.009413        -0.076104         2.597591
 C         1.718352        -1.242249         2.710969
 O         2.756892        -1.515397         1.616011
 C         1.956521        -1.426643         0.462812
 H         3.262450         1.172595         0.768449
 H         3.550983         0.778405        -0.932892
 H         2.328413         1.968502        -0.507605
 H        -0.068158         0.456906        -1.169771
 H         1.085232        -0.966661        -1.795298
 H        -0.568808        -1.858778         0.330399
 H        -0.145050         0.824951         1.222990
 H         2.344476        -1.230150         3.625446
 H         1.061641        -2.142957         2.644852
 H         2.337517        -2.170591        -0.293640
