19
Iteration:  3814charge 0 multiplicity 1
 C         2.763040         1.099860        -0.148441
 C         1.689618         0.099299         0.086854
 C         0.605428        -0.345578        -0.898785
 C         0.345112        -1.235168         0.353453
 C         0.563959         0.095910         1.167732
 O         0.995698        -0.065819         2.512825
 C         1.750516        -1.221402         2.745687
 O         2.729586        -1.561863         1.625151
 C         1.903885        -1.518522         0.472179
 H         3.429672         1.338275         0.625076
 H         3.393471         0.868246        -0.996291
 H         2.398838         2.132887        -0.358337
 H        -0.115532         0.359249        -1.173240
 H         1.026071        -0.752123        -1.895664
 H        -0.356857        -2.071317         0.569350
 H        -0.114023         0.882546         1.159237
 H         2.311238        -1.274986         3.673973
 H         1.116676        -2.091369         2.728981
 H         2.280478        -2.024191        -0.388471
