19
Iteration:   244charge 0 multiplicity 1
 C         2.700900         1.188978        -0.223322
 C         1.768759         0.057720        -0.047734
 C         0.648218        -0.355859        -0.950426
 C         0.398472        -1.168287         0.360481
 C         0.592301         0.109320         1.182410
 O         0.910794        -0.279180         2.586921
 C         2.128446        -0.973434         2.799508
 O         2.339447        -1.860370         1.669050
 C         1.941136        -1.347915         0.432407
 H         3.444244         1.043262         0.598558
 H         3.261580         1.229636        -1.118718
 H         2.160520         2.169608        -0.190466
 H        -0.084460         0.428786        -1.152078
 H         0.776022        -0.940188        -1.925983
 H        -0.353069        -1.982435         0.814283
 H        -0.214259         0.925946         1.132579
 H         2.880036        -0.239088         3.208031
 H         1.965857        -1.559288         3.681548
 H         2.440701        -1.972444        -0.290776
