19
Iteration:     9
 C         2.735857         1.189024        -0.112111
 C         1.691986         0.118472         0.136020
 C         0.612286        -0.280830        -0.910237
 C         0.363152        -1.288782         0.354501
 C         0.628927         0.003724         1.177634
 O         0.955759        -0.167771         2.519423
 C         2.096939        -0.919590         2.673647
 O         2.411440        -1.837508         1.685448
 C         1.877150        -1.476055         0.363148
 H         3.377907         1.216816         0.732906
 H         3.299154         0.762755        -0.988871
 H         2.374960         2.133407        -0.408568
 H        -0.160522         0.507453        -1.149331
 H         1.069570        -0.668887        -1.800230
 H        -0.330442        -2.032919         0.413290
 H        -0.246539         0.665983         1.131637
 H         2.864422        -0.054081         2.777252
 H         1.760855        -1.410074         3.657564
 H         2.460092        -2.187099        -0.338029
