19
Iteration:  1662
 C         2.840999         1.238022        -0.260884
 C         1.726643         0.122069         0.001824
 C         0.550870        -0.375983        -0.920108
 C         0.272736        -1.235128         0.387326
 C         0.566367         0.069446         1.214321
 O         0.992703        -0.157558         2.633792
 C         1.870131        -1.357706         2.774189
 O         2.689359        -1.570152         1.620027
 C         1.863908        -1.378218         0.408147
 H         3.305970         1.567653         0.685320
 H         3.547096         0.866369        -1.075902
 H         2.296166         2.075539        -0.619468
 H        -0.058236         0.481260        -1.442618
 H         0.851235        -1.193661        -1.637346
 H        -0.549605        -1.802449         0.583459
 H        -0.101159         0.949235         1.398961
 H         2.512680        -1.049013         3.627038
 H         1.091680        -2.145095         3.023882
 H         2.325002        -2.083023        -0.365753
