19
Iteration:  3735
 C         2.617296         1.296374        -0.136104
 C         1.756767         0.104136         0.082579
 C         0.643787        -0.460023        -0.959907
 C         0.345125        -1.232454         0.426802
 C         0.692346         0.094187         1.148061
 O         1.187903         0.036928         2.488118
 C         1.665767        -1.366008         2.746756
 O         2.588804        -1.706881         1.704423
 C         1.957510        -1.444990         0.426493
 H         3.416576         1.483669         0.624441
 H         3.042202         1.197014        -1.163819
 H         1.846136         2.063343        -0.107780
 H        -0.124790         0.341613        -1.217878
 H         0.972543        -1.038454        -1.881386
 H        -0.471655        -1.995189         0.491945
 H         0.054042         0.945427         0.968108
 H         2.250437        -1.204761         3.669599
 H         0.692570        -1.878531         2.737597
 H         2.196018        -2.076393        -0.518038
