19
Iteration:  3138
 C         2.804484         1.097463        -0.099450
 C         1.628306         0.183980         0.052400
 C         0.539093        -0.331619        -0.914488
 C         0.328564        -1.249401         0.393911
 C         0.562692         0.049640         1.164381
 O         1.099397        -0.070118         2.509759
 C         1.737945        -1.282923         2.749758
 O         2.646682        -1.619984         1.652126
 C         2.021711        -1.369288         0.396749
 H         3.515287         1.153636         0.758363
 H         3.395108         0.687506        -0.908092
 H         2.683206         2.209540        -0.351517
 H        -0.342799         0.188082        -1.057525
 H         0.648636        -0.799588        -1.927421
 H        -0.415465        -2.037933         0.515985
 H        -0.201219         0.780109         1.093516
 H         2.299847        -1.270195         3.685941
 H         0.991448        -2.121286         2.643943
 H         2.451154        -1.902938        -0.466043
