19
Iteration:  1250
 C         2.644824         1.198566        -0.209893
 C         1.620196         0.149965         0.167527
 C         0.632312        -0.372634        -0.877859
 C         0.385802        -1.341741         0.395371
 C         0.578036        -0.002150         1.227491
 O         1.194997         0.037836         2.523412
 C         1.714811        -1.222886         2.724485
 O         2.600200        -1.724073         1.626659
 C         2.027789        -1.378583         0.374726
 H         3.325807         1.584800         0.615495
 H         3.362717         0.848281        -1.012513
 H         2.054282         2.012881        -0.564753
 H        -0.274080         0.299622        -1.123130
 H         0.994563        -0.660348        -1.863181
 H        -0.502224        -2.054312         0.507260
 H        -0.245228         0.686822         1.127354
 H         2.485572        -1.255560         3.550949
 H         0.902540        -1.981546         2.714620
 H         2.368273        -1.852924        -0.475548
