19
Iteration:  2540
 C         2.649938         1.275670        -0.217163
 C         1.711244         0.100017         0.039645
 C         0.621781        -0.418089        -0.818857
 C         0.352365        -1.243456         0.444281
 C         0.744463         0.140976         1.201371
 O         1.048030        -0.040114         2.585343
 C         1.672201        -1.315957         2.650623
 O         2.583641        -1.708141         1.625821
 C         2.034791        -1.412801         0.392444
 H         3.313799         1.218862         0.700502
 H         3.429134         1.181194        -1.020078
 H         2.143601         2.313866        -0.189358
 H        -0.030079         0.356774        -1.263753
 H         0.898256        -1.134157        -1.748850
 H        -0.407725        -1.951600         0.682612
 H        -0.062482         0.908491         0.949239
 H         2.359896        -1.308343         3.563965
 H         0.852704        -2.061290         2.599222
 H         2.390050        -2.053462        -0.461861
