19
Iteration:  3106charge 0 multiplicity 1
 C         2.699503         1.291823        -0.098114
 C         1.681139         0.122842         0.010006
 C         0.641384        -0.405602        -0.899522
 C         0.369938        -1.305332         0.378340
 C         0.634742         0.066563         1.181498
 O         1.197727         0.046928         2.592669
 C         1.717493        -1.219447         2.756536
 O         2.503448        -1.768535         1.613167
 C         1.960686        -1.432929         0.335849
 H         3.261584         1.218227         0.846415
 H         3.351160         1.049672        -0.894189
 H         2.132782         2.276234        -0.165279
 H        -0.222795         0.174555        -1.090885
 H         0.958700        -0.965836        -1.840711
 H        -0.390918        -2.072442         0.283718
 H        -0.002820         0.850130         1.075756
 H         2.342155        -1.361500         3.639423
 H         0.822456        -1.994216         2.795718
 H         2.507468        -2.026899        -0.423066
