19
Iteration:  2913charge 0 multiplicity 1
 C         2.661704         1.302049        -0.077149
 C         1.741507         0.159857        -0.045061
 C         0.639199        -0.469009        -0.954615
 C         0.360454        -1.291856         0.430080
 C         0.668949         0.100862         1.175313
 O         1.228905         0.066867         2.546900
 C         1.649983        -1.372688         2.734533
 O         2.485866        -1.691732         1.661483
 C         2.008138        -1.446286         0.403430
 H         3.127526         1.297116         0.855727
 H         3.401084         1.392241        -0.913984
 H         1.965888         2.157165        -0.217657
 H        -0.221953         0.143133        -1.160359
 H         0.823467        -1.032167        -1.855334
 H        -0.445639        -1.996476         0.512175
 H        -0.192630         0.903644         1.056357
 H         2.425432        -1.413031         3.456570
 H         0.908537        -2.203050         2.811450
 H         2.453760        -2.027716        -0.381566
