19
Iteration:  3293
 C         2.695850         1.130305        -0.124882
 C         1.696592         0.138705         0.106828
 C         0.602559        -0.331053        -0.895045
 C         0.330411        -1.313478         0.322325
 C         0.641714         0.008236         1.201987
 O         1.110797         0.004121         2.556434
 C         1.753781        -1.230829         2.725379
 O         2.588047        -1.675508         1.575788
 C         1.947048        -1.379713         0.419427
 H         3.322375         1.459818         0.667904
 H         3.564928         0.827555        -0.786342
 H         2.314118         2.167165        -0.433428
 H        -0.290763         0.247739        -1.095690
 H         0.981344        -0.887717        -1.820615
 H        -0.454631        -2.079388         0.575861
 H        -0.088459         0.824391         1.237093
 H         2.414760        -1.150567         3.619372
 H         0.950588        -2.013601         2.760106
 H         2.522592        -1.903724        -0.418295
