19
Iteration:  2554
 C         2.682397         1.254192        -0.117152
 C         1.707564         0.127474         0.032493
 C         0.544769        -0.396383        -0.894354
 C         0.495627        -1.256116         0.416523
 C         0.620370         0.067065         1.168961
 O         1.149472         0.050065         2.482198
 C         1.651845        -1.288634         2.739705
 O         2.596939        -1.813343         1.650349
 C         1.976224        -1.364324         0.381113
 H         3.406790         1.158827         0.614228
 H         3.112259         1.193745        -1.172056
 H         2.112498         2.211905         0.009300
 H        -0.387566         0.234233        -0.960093
 H         0.949293        -0.783563        -1.821968
 H        -0.205913        -2.113383         0.607141
 H        -0.102604         0.886937         1.244908
 H         2.114948        -1.304696         3.725299
 H         0.832461        -1.975952         2.769650
 H         2.520433        -2.000810        -0.373241
