19
Iteration:  2698
 C         2.747675         1.212531        -0.272963
 C         1.708745         0.094858        -0.004246
 C         0.524517        -0.402872        -0.857542
 C         0.392755        -1.174961         0.394945
 C         0.649741         0.097335         1.178742
 O         1.073762        -0.121867         2.593238
 C         1.629354        -1.387476         2.771990
 O         2.636412        -1.646568         1.649859
 C         1.997127        -1.294392         0.403351
 H         3.184534         1.525533         0.689408
 H         3.658198         1.078983        -0.826742
 H         2.390665         2.127763        -0.679225
 H        -0.149868         0.431396        -1.259626
 H         0.884010        -1.022944        -1.652014
 H        -0.415253        -1.956452         0.537261
 H        -0.054787         0.844048         1.367486
 H         2.184857        -1.399040         3.700626
 H         0.923617        -2.244665         2.684620
 H         2.666022        -1.816375        -0.326792
