19
Iteration:  2189charge 0 multiplicity 1
 C         2.801487         1.166951        -0.220589
 C         1.631988         0.233770         0.025049
 C         0.481888        -0.379837        -0.910140
 C         0.482811        -1.289825         0.391630
 C         0.603155         0.052055         1.235832
 O         1.130839        -0.088540         2.541952
 C         1.692201        -1.351529         2.697512
 O         2.608463        -1.594891         1.678382
 C         1.971017        -1.288664         0.405261
 H         3.468288         0.972629         0.649250
 H         3.354432         0.739157        -1.060752
 H         2.296924         2.144768        -0.173159
 H        -0.317702         0.288989        -1.126096
 H         0.869989        -0.959888        -1.765542
 H        -0.135699        -2.159771         0.479941
 H        -0.260345         0.771650         1.308988
 H         2.101136        -1.415139         3.754982
 H         0.831818        -2.157155         2.787153
 H         2.426413        -1.981222        -0.380904
