19
Iteration:  2421charge 0 multiplicity 1
 C         2.603588         1.277663        -0.014966
 C         1.712143         0.160111         0.049264
 C         0.661847        -0.479845        -0.914718
 C         0.310657        -1.228004         0.402368
 C         0.625177         0.039822         1.154990
 O         1.243613         0.040133         2.463738
 C         1.752849        -1.292606         2.668078
 O         2.588691        -1.702699         1.612334
 C         1.891390        -1.490800         0.449826
 H         3.315533         1.225428         0.788555
 H         3.366756         1.458765        -0.783629
 H         2.069724         2.272278         0.125613
 H        -0.105895         0.196240        -1.243834
 H         1.019693        -1.033136        -1.815953
 H        -0.616799        -1.834811         0.518290
 H        -0.138819         0.900825         1.167986
 H         2.436704        -1.177663         3.565513
 H         0.917146        -1.999060         2.803269
 H         2.168748        -2.230229        -0.391183
