19
Iteration:  2145
 C         2.780143         1.181480        -0.284745
 C         1.770040         0.082552         0.096389
 C         0.649919        -0.247212        -0.877157
 C         0.341379        -1.220895         0.414166
 C         0.578508         0.029789         1.287164
 O         0.980362        -0.157668         2.554041
 C         1.797568        -1.324625         2.680446
 O         2.676993        -1.504055         1.631675
 C         1.826411        -1.447184         0.425222
 H         3.508616         1.676514         0.442302
 H         3.453518         0.704304        -1.014620
 H         1.963439         1.926005        -0.538433
 H        -0.188590         0.386790        -1.103093
 H         1.024050        -0.762608        -1.764984
 H        -0.320346        -2.056163         0.569773
 H        -0.184335         0.806924         1.042505
 H         2.394096        -1.383336         3.654137
 H         1.183375        -2.302599         2.853661
 H         2.155822        -2.035684        -0.511245
