19
Iteration:   948
 C         2.606267         1.193052        -0.258981
 C         1.660169         0.100719         0.096349
 C         0.571212        -0.312738        -0.920436
 C         0.420906        -1.274441         0.345605
 C         0.623671        -0.033529         1.240894
 O         1.213233         0.003423         2.539912
 C         1.723254        -1.290586         2.797793
 O         2.552764        -1.666609         1.656557
 C         2.012552        -1.374754         0.409148
 H         3.398753         1.205769         0.543269
 H         3.099424         0.684273        -1.057513
 H         2.170821         2.180817        -0.545557
 H        -0.231529         0.360884        -1.143736
 H         0.876085        -0.826014        -1.835503
 H        -0.312640        -2.011798         0.544007
 H        -0.090969         0.832200         1.106208
 H         2.359966        -1.189577         3.703518
 H         0.846391        -1.901598         2.939408
 H         2.649499        -1.801249        -0.424042
