19
Iteration:  3780charge 0 multiplicity 1
 C         2.740109         1.290077        -0.096507
 C         1.697012         0.138489        -0.038968
 C         0.533649        -0.436847        -0.958116
 C         0.460398        -1.316910         0.293238
 C         0.631344         0.079421         1.187356
 O         1.151810         0.022180         2.558906
 C         1.714608        -1.193737         2.870467
 O         2.480838        -1.804334         1.642612
 C         1.991041        -1.385639         0.364282
 H         3.512717         1.032001         0.582334
 H         3.086621         1.156178        -1.121292
 H         2.221417         2.232329        -0.048704
 H        -0.375791         0.113331        -1.124012
 H         0.970178        -1.021529        -1.845125
 H        -0.157810        -2.134371         0.683212
 H        -0.139446         0.781131         1.226175
 H         2.324866        -0.945997         3.728445
 H         0.926947        -1.881155         3.043606
 H         2.723820        -1.901331        -0.318674
