19
Iteration:  2346
 C         2.703799         1.139474        -0.257389
 C         1.753054         0.161905         0.096865
 C         0.649398        -0.411902        -0.824681
 C         0.349890        -1.193808         0.369765
 C         0.600354         0.145236         1.222394
 O         0.960522        -0.138638         2.613799
 C         1.793099        -1.338838         2.658532
 O         2.653947        -1.571571         1.584915
 C         1.944263        -1.391106         0.466256
 H         3.491255         1.295080         0.509849
 H         3.342490         0.968079        -1.206124
 H         2.282249         2.171658        -0.555118
 H        -0.150243         0.252028        -1.162278
 H         1.061614        -0.968516        -1.656093
 H        -0.531269        -1.958117         0.471888
 H        -0.224845         0.937822         1.259030
 H         2.288882        -1.486915         3.682811
 H         1.076889        -2.238488         2.617612
 H         2.438870        -1.922733        -0.421784
