19
Iteration:   533charge 0 multiplicity 1
 C         2.714260         1.283644        -0.320066
 C         1.793588         0.161587         0.065888
 C         0.597662        -0.470635        -0.874971
 C         0.314422        -1.271653         0.364584
 C         0.667062         0.139560         1.230672
 O         0.968964        -0.122736         2.638558
 C         1.873112        -1.260088         2.799208
 O         2.560567        -1.727669         1.587020
 C         1.874055        -1.373896         0.422064
 H         3.348265         1.801137         0.461969
 H         3.501383         0.834238        -0.943113
 H         2.250656         2.100632        -0.882459
 H         0.094527         0.400069        -1.352201
 H         0.949265        -0.969453        -1.844968
 H        -0.360756        -2.222281         0.746983
 H        -0.097195         0.924484         1.152331
 H         2.701354        -0.793747         3.435786
 H         1.272425        -1.956860         3.284132
 H         2.283952        -2.005435        -0.416436
