19
Iteration:   923charge 0 multiplicity 1
 C         2.718595         1.366358        -0.291089
 C         1.780819         0.093216         0.013900
 C         0.607181        -0.448925        -0.898863
 C         0.372972        -1.191830         0.451859
 C         0.581412         0.115590         1.242123
 O         1.043414        -0.083067         2.534169
 C         1.820466        -1.300679         2.752929
 O         2.630456        -1.746513         1.646551
 C         1.879998        -1.452512         0.446122
 H         3.265837         1.716082         0.597376
 H         3.429253         1.164021        -1.113483
 H         1.971825         2.074893        -0.602781
 H        -0.220532         0.236311        -1.142217
 H         0.736210        -1.089953        -1.725335
 H        -0.365445        -1.940086         0.598781
 H        -0.011916         1.023693         1.173647
 H         2.423900        -1.044279         3.656859
 H         0.999671        -1.994813         2.996752
 H         2.290444        -2.038336        -0.438279
