19
Iteration:  1539charge 0 multiplicity 1
 C         2.600250         1.183444        -0.126817
 C         1.601714         0.103228         0.130578
 C         0.576680        -0.337732        -0.878608
 C         0.397139        -1.330580         0.294047
 C         0.608425        -0.011595         1.187486
 O         1.283025         0.009802         2.499520
 C         1.773437        -1.206560         2.725169
 O         2.500922        -1.684881         1.642274
 C         2.033824        -1.377108         0.415304
 H         3.199850         1.317373         0.751777
 H         3.287984         0.881045        -0.950700
 H         2.059082         2.158435        -0.384117
 H        -0.273197         0.364339        -0.964032
 H         0.958026        -0.766558        -1.897856
 H        -0.289727        -2.150691         0.153010
 H        -0.172921         0.780542         1.189502
 H         2.402604        -1.131096         3.624395
 H         0.980937        -1.918321         3.032416
 H         2.644745        -1.995809        -0.294777
