19
Iteration:  3645charge 0 multiplicity 1
 C         2.874702         1.157261        -0.160838
 C         1.668390         0.142480        -0.015499
 C         0.556908        -0.457402        -0.868299
 C         0.368593        -1.246763         0.383803
 C         0.640935         0.089651         1.212710
 O         0.984832        -0.129147         2.543937
 C         1.770989        -1.263213         2.723256
 O         2.592771        -1.535164         1.620340
 C         1.892301        -1.409167         0.431068
 H         3.390534         1.558255         0.740318
 H         3.705718         0.826686        -0.807243
 H         2.512238         2.046627        -0.548967
 H        -0.337119         0.284193        -0.979049
 H         0.855180        -0.912661        -1.793407
 H        -0.380829        -1.986949         0.481596
 H        -0.048494         0.959801         1.245133
 H         2.522736        -1.090285         3.488768
 H         1.148711        -2.168841         2.848465
 H         2.543117        -2.026334        -0.284839
