19
Iteration:  3274charge 0 multiplicity 1
 C         2.736268         1.375715        -0.115476
 C         1.706598         0.030930         0.006603
 C         0.569591        -0.442980        -0.905868
 C         0.429087        -1.197003         0.418039
 C         0.641916         0.091906         1.166735
 O         1.136489         0.015929         2.518356
 C         1.749826        -1.376256         2.720193
 O         2.534337        -1.696632         1.654607
 C         1.887326        -1.481876         0.384197
 H         3.278863         1.558702         0.856084
 H         3.618398         1.363820        -0.882927
 H         2.134616         2.309891        -0.221630
 H        -0.180393         0.360246        -1.268685
 H         0.864725        -1.179335        -1.684740
 H        -0.335925        -1.990215         0.491136
 H        -0.105968         0.849960         1.247324
 H         2.480640        -1.122691         3.486591
 H         0.988141        -2.080754         2.968651
 H         2.311013        -2.171058        -0.360234
