19
Iteration:  3664
 C         2.794692         1.015121        -0.229470
 C         1.718310         0.129090         0.110175
 C         0.565088        -0.310027        -0.933260
 C         0.370580        -1.240803         0.360272
 C         0.512553        -0.016289         1.243959
 O         0.985561        -0.050663         2.600308
 C         1.765459        -1.306266         2.786505
 O         2.667552        -1.511500         1.608808
 C         1.980444        -1.323010         0.351760
 H         3.369674         1.349238         0.629682
 H         3.560264         0.424143        -0.680116
 H         2.603923         1.906844        -0.872457
 H        -0.160378         0.431604        -1.230214
 H         1.043186        -0.916729        -1.739956
 H        -0.290446        -2.068745         0.657534
 H        -0.362509         0.738290         1.185562
 H         2.351465        -1.158491         3.681619
 H         1.110330        -2.162428         2.710940
 H         2.270492        -1.899752        -0.469810
