19
Iteration:   641charge 0 multiplicity 1
 C         2.703182         1.141378        -0.112694
 C         1.702030         0.042814         0.033837
 C         0.638669        -0.340044        -0.987366
 C         0.301863        -1.258328         0.420513
 C         0.538722        -0.007049         1.171729
 O         1.169415        -0.045155         2.505618
 C         1.897797        -1.176961         2.789650
 O         2.573799        -1.599509         1.629510
 C         1.842953        -1.408234         0.375499
 H         3.491660         1.070529         0.650068
 H         3.122103         1.072908        -1.114605
 H         2.175969         2.080880        -0.047017
 H        -0.195498         0.392909        -1.108820
 H         0.875087        -1.024188        -1.796937
 H        -0.504728        -2.050429         0.560041
 H        -0.080138         0.899769         1.285768
 H         2.682298        -0.928519         3.613331
 H         1.182428        -1.987473         3.218211
 H         2.292653        -2.118119        -0.227445
