19
Iteration:  1098
 C         2.526842         1.211256        -0.198261
 C         1.697628         0.052945         0.022906
 C         0.587420        -0.456190        -0.950550
 C         0.311910        -1.177226         0.373019
 C         0.662114         0.171513         1.208768
 O         1.221676         0.010663         2.563099
 C         1.727399        -1.393685         2.717263
 O         2.695449        -1.643768         1.638331
 C         1.948494        -1.441883         0.496847
 H         2.727983         1.488778         0.888075
 H         3.402709         0.911417        -0.803456
 H         2.046737         2.034795        -0.665199
 H         0.034107         0.526473        -1.133894
 H         0.929474        -0.962792        -1.831151
 H        -0.391031        -1.981211         0.597199
 H         0.039100         1.033960         1.142804
 H         2.210163        -1.449003         3.761663
 H         0.912926        -2.072224         2.691039
 H         2.316302        -1.985497        -0.414575
