19
Iteration:  4463charge 0 multiplicity 1
 C         2.672947         1.300302        -0.182628
 C         1.839260        -0.004229         0.031777
 C         0.665788        -0.490520        -0.941743
 C         0.472038        -1.246762         0.357361
 C         0.616866         0.106750         1.067567
 O         1.105012         0.044133         2.532625
 C         1.622705        -1.194895         2.788556
 O         2.518377        -1.726955         1.698424
 C         1.957229        -1.434748         0.482356
 H         3.112309         1.642420         0.773169
 H         3.569852         1.132822        -0.893205
 H         2.016373         2.157313        -0.439065
 H        -0.226207         0.230763        -1.023649
 H         0.942622        -1.102968        -1.758656
 H        -0.400498        -1.969714         0.421063
 H        -0.213257         0.803893         1.158476
 H         2.175952        -1.198693         3.808609
 H         0.837284        -1.993695         2.812469
 H         2.488612        -2.192496        -0.301506
