19
Iteration:  4232
 C         2.672306         1.226364        -0.191500
 C         1.767527         0.110844         0.019221
 C         0.604657        -0.432631        -0.921058
 C         0.461051        -1.238242         0.411930
 C         0.665264         0.060123         1.133065
 O         1.109061        -0.007646         2.442304
 C         1.666567        -1.245345         2.742654
 O         2.412932        -1.760660         1.748084
 C         2.109849        -1.338220         0.441191
 H         3.136081         1.558449         0.794053
 H         3.491304         0.779842        -0.795754
 H         2.225252         2.164960        -0.510766
 H        -0.058386         0.456991        -1.123001
 H         0.884807        -1.113574        -1.705368
 H        -0.458014        -1.700648         0.708783
 H        -0.172139         0.698187         1.045458
 H         2.192547        -1.243241         3.653394
 H         0.821649        -2.014870         2.976863
 H         2.653184        -1.994498        -0.224906
