19
Iteration:  1742charge 0 multiplicity 1
 C         2.626761         1.256466        -0.122903
 C         1.667570         0.101511         0.047628
 C         0.550067        -0.391743        -0.909109
 C         0.449696        -1.279191         0.393507
 C         0.640900         0.049468         1.203942
 O         1.251060         0.028425         2.480499
 C         1.723934        -1.254262         2.717693
 O         2.511191        -1.790234         1.673554
 C         1.967195        -1.350843         0.387454
 H         3.239044         1.065622         0.770737
 H         3.190145         1.217425        -1.030017
 H         1.966852         2.168274        -0.086031
 H        -0.251226         0.337909        -1.151062
 H         0.961346        -0.757441        -1.863509
 H        -0.107690        -2.218909         0.397034
 H        -0.021837         0.935924         1.167428
 H         2.391908        -1.266309         3.549933
 H         0.825936        -1.909919         3.012471
 H         2.534355        -1.947242        -0.357056
