19
Iteration:  4085charge 0 multiplicity 1
 C         2.661746         1.323255        -0.134633
 C         1.786666         0.122839         0.070492
 C         0.621041        -0.574768        -0.918208
 C         0.465540        -1.267422         0.406081
 C         0.684288         0.182770         1.117745
 O         1.157537         0.019678         2.457501
 C         1.630917        -1.335061         2.776623
 O         2.464138        -1.752167         1.679049
 C         1.979616        -1.339562         0.444544
 H         3.184916         1.564469         0.779017
 H         3.457848         1.114606        -0.884288
 H         2.046865         2.237329        -0.377507
 H        -0.169454        -0.044287        -1.360640
 H         1.016980        -1.234497        -1.787807
 H        -0.436951        -1.977191         0.628835
 H        -0.084052         1.040212         1.049557
 H         2.329979        -1.296433         3.692335
 H         0.736335        -1.911498         2.729988
 H         2.450584        -2.102150        -0.311155
