19
Iteration:   123charge 0 multiplicity 1
 C         2.764528         1.176110        -0.276894
 C         1.735705         0.069797         0.112672
 C         0.596569        -0.290475        -0.905010
 C         0.312120        -1.266056         0.291408
 C         0.530244        -0.060452         1.210147
 O         1.016046        -0.046744         2.569407
 C         1.965190        -1.135284         2.827035
 O         2.512318        -1.739444         1.656352
 C         1.948925        -1.390643         0.398031
 H         3.497102         1.346252         0.542949
 H         3.258388         0.904394        -1.170733
 H         2.212920         2.120883        -0.497722
 H        -0.158446         0.413214        -1.202884
 H         0.984785        -0.842137        -1.821457
 H        -0.526203        -2.076507         0.256007
 H        -0.145378         0.816344         1.288136
 H         2.726450        -0.566074         3.457537
 H         1.367858        -1.781422         3.431979
 H         2.517108        -1.984111        -0.287326
