19
Iteration:  1205charge 0 multiplicity 1
 C         2.714427         1.225531        -0.109134
 C         1.756533         0.148540        -0.040704
 C         0.420752        -0.513614        -0.909474
 C         0.309394        -1.215113         0.389855
 C         0.650288         0.085000         1.104937
 O         1.057228        -0.064962         2.629030
 C         1.757444        -1.275072         2.790673
 O         2.713817        -1.579304         1.606647
 C         1.983875        -1.425717         0.379485
 H         3.573290         0.900143         0.522474
 H         3.294345         1.270772        -1.112574
 H         2.264075         2.162160         0.160904
 H        -0.403549         0.078480        -1.486967
 H         0.814571        -1.201144        -1.667170
 H        -0.642648        -1.731537         0.886159
 H        -0.099063         0.872381         1.146214
 H         2.499521        -1.193746         3.672329
 H         1.129444        -2.196565         2.635501
 H         2.557398        -1.987724        -0.301139
