19
Iteration:   114charge 0 multiplicity 1
 C         2.732791         1.171550        -0.318149
 C         1.704684         0.173119         0.044440
 C         0.631505        -0.304494        -0.908417
 C         0.390752        -1.269969         0.290685
 C         0.559802         0.016559         1.276663
 O         1.063192        -0.073107         2.530667
 C         1.893296        -1.210749         2.828245
 O         2.486602        -1.661985         1.714041
 C         1.899019        -1.480439         0.429744
 H         3.434481         1.401982         0.522366
 H         3.335704         0.966283        -1.220138
 H         2.196487         2.156400        -0.508063
 H        -0.140014         0.476416        -1.000203
 H         0.827910        -0.744137        -1.914798
 H        -0.182434        -2.339328         0.353102
 H        -0.191960         0.812819         1.127444
 H         2.797139        -0.838213         3.468270
 H         1.429354        -2.087758         3.257056
 H         2.381446        -2.176250        -0.220381
