19
Iteration:  2956
 C         2.781333         1.165785        -0.121383
 C         1.654059         0.081179         0.038236
 C         0.606629        -0.339541        -0.915997
 C         0.393131        -1.315899         0.284387
 C         0.544991         0.034827         1.181593
 O         1.092485        -0.021781         2.553085
 C         1.832491        -1.218524         2.752802
 O         2.550139        -1.670368         1.655641
 C         1.936920        -1.359006         0.442210
 H         3.344918         0.931912         0.736466
 H         3.357792         1.103063        -1.065997
 H         2.357704         2.201777        -0.124990
 H        -0.098622         0.451609        -1.107972
 H         0.915291        -0.837230        -1.865274
 H        -0.319797        -2.109503         0.390346
 H        -0.353652         0.792221         1.165464
 H         2.515196        -1.157362         3.596016
 H         0.947685        -2.026495         2.860779
 H         2.490403        -1.846299        -0.371105
