19
Iteration:    31
 C         2.743078         1.189883        -0.248472
 C         1.736981         0.079767         0.043110
 C         0.550191        -0.351854        -0.890795
 C         0.409280        -1.263115         0.272406
 C         0.542934         0.014023         1.163601
 O         1.068379         0.001204         2.595088
 C         1.924701        -1.168730         2.834690
 O         2.491158        -1.809021         1.642836
 C         1.964284        -1.373211         0.445948
 H         3.272680         1.410191         0.647915
 H         3.420263         1.049847        -1.127330
 H         2.121878         2.023249        -0.458910
 H        -0.297776         0.390605        -0.879511
 H         0.656244        -0.772111        -1.872125
 H        -0.311227        -1.984763         0.350948
 H        -0.252242         0.773507         1.135083
 H         2.675268        -0.661970         3.436228
 H         1.200498        -1.836807         3.348555
 H         2.537680        -1.980749        -0.337721
