19
Iteration:  4165charge 0 multiplicity 1
 C         2.846105         1.065016        -0.164966
 C         1.656200         0.171390         0.001773
 C         0.573181        -0.461197        -0.990709
 C         0.408015        -1.219965         0.363297
 C         0.654866         0.185519         1.183595
 O         0.882524        -0.106051         2.533053
 C         1.768632        -1.257355         2.754632
 O         2.634603        -1.542966         1.701773
 C         1.940850        -1.410680         0.460312
 H         3.575859         0.923061         0.687725
 H         3.382797         0.743079        -1.042175
 H         2.715960         2.172155        -0.180933
 H        -0.259319         0.153322        -1.196987
 H         1.064780        -0.907328        -1.857107
 H        -0.259084        -2.051733         0.499493
 H        -0.179638         0.863053         1.186408
 H         2.314890        -1.166042         3.643917
 H         1.096251        -2.107081         2.872171
 H         2.525186        -2.088330        -0.170633
