19
Iteration:  4935charge 0 multiplicity 1
 C         2.678183         1.251943        -0.155191
 C         1.692964         0.107450         0.067036
 C         0.612596        -0.452257        -0.996080
 C         0.473556        -1.309402         0.227047
 C         0.624088         0.063468         1.154766
 O         1.253591         0.190117         2.579232
 C         1.601673        -1.285572         2.894174
 O         2.461137        -1.777249         1.706002
 C         1.972143        -1.473676         0.381705
 H         3.656862         1.386780         0.423949
 H         3.079345         1.210989        -1.208205
 H         2.146014         2.222860        -0.160001
 H        -0.211484         0.205524        -1.302097
 H         1.247072        -0.841132        -1.815713
 H        -0.235280        -2.142393         0.451202
 H        -0.232493         0.741125         1.077136
 H         2.195220        -1.204884         3.757735
 H         0.876940        -1.985579         3.088452
 H         2.614445        -2.006451        -0.259901
