19
Iteration:  1304
 C         2.671459         1.216888        -0.250516
 C         1.755234         0.078450         0.083302
 C         0.561094        -0.395330        -0.826163
 C         0.347367        -1.210081         0.436366
 C         0.635706         0.099883         1.203073
 O         0.997979        -0.072794         2.554228
 C         1.808306        -1.299887         2.679924
 O         2.675944        -1.621805         1.623498
 C         1.960989        -1.430876         0.419621
 H         3.008871         1.818679         0.660813
 H         3.632790         0.981386        -0.831429
 H         2.089171         1.889012        -0.854097
 H        -0.182830         0.451808        -1.056179
 H         0.868968        -0.997853        -1.672049
 H        -0.438528        -2.114931         0.363643
 H        -0.169776         0.841935         1.080042
 H         2.516730        -1.258335         3.564075
 H         1.133260        -2.124944         2.825960
 H         2.313422        -2.066020        -0.373062
