19
Iteration:  4179charge 0 multiplicity 1
 C         2.815082         0.971328        -0.180513
 C         1.716593         0.061468         0.085710
 C         0.655294        -0.405489        -0.905805
 C         0.347355        -1.249076         0.328919
 C         0.539555         0.119846         1.150950
 O         0.977029        -0.110499         2.542594
 C         1.681379        -1.284767         2.748613
 O         2.673818        -1.470046         1.688024
 C         1.968596        -1.268673         0.435173
 H         3.470558         0.970476         0.730327
 H         3.419160         0.620051        -1.075181
 H         2.336283         1.944101        -0.289537
 H        -0.021891         0.371640        -1.437910
 H         0.915933        -1.065699        -1.671636
 H        -0.470297        -1.910134         0.537139
 H        -0.021809         1.037944         1.119100
 H         2.277807        -1.014663         3.593922
 H         1.056641        -2.189176         2.731829
 H         2.370254        -1.790920        -0.386122
