19
Iteration:   248charge 0 multiplicity 1
 C         2.698193         1.208733        -0.197776
 C         1.784711         0.056427        -0.067356
 C         0.638080        -0.359074        -0.942384
 C         0.354250        -1.149217         0.365257
 C         0.579615         0.081485         1.161123
 O         0.932417        -0.269303         2.576596
 C         2.098630        -0.958682         2.803312
 O         2.370776        -1.859748         1.669713
 C         1.958808        -1.360665         0.440390
 H         3.462910         1.174800         0.545451
 H         3.254804         1.099831        -1.202044
 H         2.153918         2.123673        -0.183040
 H        -0.095778         0.486104        -1.090841
 H         0.807806        -0.962617        -1.785167
 H        -0.345716        -1.875337         0.752869
 H        -0.145040         0.842889         1.197887
 H         2.893955        -0.330665         3.223919
 H         1.819777        -1.663151         3.611100
 H         2.415830        -2.059495        -0.269926
