19
Iteration:   778charge 0 multiplicity 1
 C         2.763977         1.223735        -0.266418
 C         1.676891         0.176251         0.024946
 C         0.529576        -0.411366        -0.830882
 C         0.415420        -1.305446         0.379017
 C         0.612521         0.010861         1.233255
 O         1.163723        -0.029021         2.551888
 C         1.771480        -1.213021         2.762683
 O         2.525704        -1.677791         1.652050
 C         1.937154        -1.381229         0.376504
 H         3.531714         1.198463         0.467336
 H         3.233267         0.972195        -1.258523
 H         2.383268         2.248457        -0.211321
 H        -0.194387         0.348053        -1.115281
 H         0.945771        -0.924695        -1.699770
 H        -0.225772        -2.207151         0.465645
 H        -0.249324         0.649497         1.278917
 H         2.322109        -1.194205         3.653527
 H         0.927875        -1.923194         2.980171
 H         2.246329        -2.038245        -0.476577
