19
Iteration:  1684
 C         2.621669         1.139217        -0.158028
 C         1.671936         0.086113         0.133528
 C         0.680205        -0.435939        -0.912939
 C         0.303537        -1.159264         0.406309
 C         0.648993         0.072074         1.201983
 O         1.121149        -0.056170         2.547244
 C         1.812616        -1.311118         2.655178
 O         2.643286        -1.587162         1.583756
 C         1.884993        -1.421718         0.427318
 H         2.972466         1.515083         0.839561
 H         3.493092         0.861211        -0.812052
 H         2.152675         1.999959        -0.511296
 H        -0.113308         0.390974        -1.029385
 H         1.085337        -0.979965        -1.805771
 H        -0.500128        -1.802246         0.441181
 H        -0.031825         0.945864         1.341450
 H         2.413283        -1.169254         3.572117
 H         0.921462        -2.060811         2.744366
 H         2.327027        -2.025220        -0.423003
