19
Iteration:  2352
 C         2.713418         1.196899        -0.294312
 C         1.719196         0.107828         0.111654
 C         0.666800        -0.372901        -0.847814
 C         0.326953        -1.220738         0.361156
 C         0.575068         0.077330         1.215583
 O         0.993345        -0.105879         2.607212
 C         1.806218        -1.367947         2.677354
 O         2.650833        -1.590448         1.628197
 C         1.918918        -1.359666         0.437932
 H         3.535185         1.287035         0.424540
 H         3.315193         0.927643        -1.123131
 H         2.352341         2.200556        -0.389426
 H        -0.082194         0.366257        -1.155829
 H         1.150496        -0.879395        -1.741897
 H        -0.428158        -1.896643         0.491880
 H        -0.177868         0.829423         1.319687
 H         2.311988        -1.310119         3.596855
 H         1.036080        -2.114720         2.662892
 H         2.393030        -1.982819        -0.291886
