19
Iteration:  3514
 C         2.795372         1.048143        -0.233899
 C         1.653732         0.136458         0.114773
 C         0.499749        -0.321804        -0.962906
 C         0.361182        -1.281422         0.339200
 C         0.639603         0.101205         1.270905
 O         1.017115        -0.090551         2.579682
 C         1.772692        -1.353088         2.740978
 O         2.661835        -1.541237         1.678197
 C         1.979788        -1.325872         0.390787
 H         3.481316         1.311353         0.609440
 H         3.452761         0.581343        -1.066594
 H         2.570920         1.983479        -0.676554
 H        -0.377999         0.322492        -1.194428
 H         0.868902        -0.647150        -1.908945
 H        -0.380562        -2.049909         0.484904
 H        -0.113641         0.848621         1.171192
 H         2.211840        -1.332787         3.718882
 H         1.006539        -2.088043         2.784283
 H         2.425464        -1.845216        -0.464720
