19
Iteration:  3478
 C         2.904854         1.148247        -0.177546
 C         1.685734         0.114066         0.100719
 C         0.500576        -0.411181        -0.906031
 C         0.384933        -1.293913         0.425787
 C         0.583003         0.028352         1.256651
 O         1.022845         0.000315         2.580000
 C         1.760839        -1.323557         2.646119
 O         2.613788        -1.580426         1.622758
 C         1.908872        -1.320283         0.325809
 H         3.300337         1.345408         0.788226
 H         3.682174         0.642882        -0.783374
 H         2.417770         2.075214        -0.597130
 H        -0.277642         0.331529        -0.984832
 H         0.932139        -0.851429        -1.873849
 H        -0.260469        -2.214274         0.610641
 H        -0.153578         0.923169         1.239074
 H         2.440383        -1.202624         3.509548
 H         0.985179        -2.118756         2.759321
 H         2.432877        -1.929721        -0.474270
