19
Iteration:  1402charge 0 multiplicity 1
 C         2.663800         1.281136        -0.168714
 C         1.698266         0.097789         0.028188
 C         0.584029        -0.377452        -0.968092
 C         0.382507        -1.329898         0.371228
 C         0.610478         0.049679         1.174543
 O         1.164455        -0.057754         2.505082
 C         1.817063        -1.265244         2.789304
 O         2.548242        -1.668084         1.662675
 C         1.915126        -1.385056         0.469478
 H         3.609588         1.218525         0.434477
 H         2.892388         1.345973        -1.257857
 H         2.229329         2.218767         0.037610
 H        -0.038550         0.547369        -1.213753
 H         0.822684        -0.991421        -1.804649
 H        -0.454244        -2.064717         0.598850
 H        -0.116196         0.886642         1.140568
 H         2.484207        -1.075451         3.685304
 H         1.256412        -2.184650         3.093347
 H         2.291820        -2.126318        -0.256018
