19
Iteration:  4223charge 0 multiplicity 1
 C         2.743881         1.164685        -0.182172
 C         1.756527         0.075000         0.018084
 C         0.586664        -0.453624        -0.894867
 C         0.426394        -1.220955         0.384083
 C         0.690288         0.069806         1.136642
 O         1.045209         0.013804         2.494262
 C         1.626492        -1.288386         2.818665
 O         2.483478        -1.703364         1.708135
 C         2.101455        -1.299615         0.402751
 H         3.185524         1.350818         0.809979
 H         3.593376         0.854303        -0.904698
 H         2.247900         2.002986        -0.678489
 H        -0.311838         0.278058        -1.087327
 H         0.768120        -0.778400        -1.869548
 H        -0.257632        -2.090782         0.514237
 H        -0.119638         0.789909         1.088434
 H         2.316516        -1.157140         3.680643
 H         0.734046        -1.922309         2.837144
 H         2.638626        -1.842075        -0.330450
