19
Iteration:  3369
 C         2.695870         1.176037        -0.228511
 C         1.703518         0.105719         0.019960
 C         0.578365        -0.292488        -0.894889
 C         0.326273        -1.221482         0.449259
 C         0.652211         0.086221         1.175412
 O         1.083654        -0.102855         2.517296
 C         1.735069        -1.345008         2.697892
 O         2.671781        -1.614472         1.716986
 C         1.918573        -1.434888         0.435262
 H         3.421212         1.197533         0.542880
 H         3.355078         1.175879        -1.103355
 H         2.307690         2.231610        -0.170434
 H         0.006418         0.477861        -1.321327
 H         1.039473        -0.773688        -1.791923
 H        -0.538053        -1.937256         0.447624
 H        -0.159588         0.858864         1.191504
 H         2.235626        -1.286216         3.692507
 H         0.934683        -2.169343         2.655937
 H         2.428058        -2.173239        -0.246426
