19
Iteration:   374
 C         2.723944         1.227395        -0.394224
 C         1.679398         0.195648        -0.026280
 C         0.591266        -0.373539        -0.933499
 C         0.430679        -1.178902         0.404554
 C         0.633998         0.122908         1.223922
 O         1.089189        -0.091771         2.568141
 C         1.803666        -1.311196         2.838161
 O         2.614488        -1.768441         1.763739
 C         1.857701        -1.400433         0.423566
 H         3.363300         1.491138         0.509192
 H         3.245022         0.947138        -1.300680
 H         2.084254         2.176904        -0.501700
 H        -0.150481         0.386003        -1.153122
 H         1.018488        -0.862454        -1.885831
 H        -0.265410        -2.002476         0.509510
 H        -0.401168         0.662040         1.267375
 H         2.503311        -1.138806         3.678146
 H         0.932900        -2.034096         2.853961
 H         2.201974        -2.231121        -0.220747
