19
Iteration:  3526
 C         2.749948         1.126401        -0.247263
 C         1.733636         0.073840         0.042984
 C         0.636031        -0.339577        -0.831014
 C         0.346783        -1.264040         0.320062
 C         0.607711         0.118852         1.221079
 O         1.037982        -0.060245         2.619647
 C         1.729246        -1.357075         2.761514
 O         2.637503        -1.525527         1.609112
 C         1.895397        -1.393387         0.388859
 H         3.483668         1.283736         0.609637
 H         3.324280         0.732271        -1.149479
 H         2.115936         1.970655        -0.433091
 H        -0.088904         0.489018        -1.034408
 H         0.900045        -0.944493        -1.629650
 H        -0.339964        -2.065233         0.246615
 H        -0.088795         0.888856         1.290464
 H         2.384064        -1.342979         3.609793
 H         1.052954        -2.145558         2.681483
 H         2.497359        -2.052489        -0.228557
