19
Iteration:  4497
 C         2.855137         1.127838        -0.253891
 C         1.726523         0.162537         0.023437
 C         0.669115        -0.399853        -0.916187
 C         0.447542        -1.310559         0.284835
 C         0.452508         0.015961         1.197417
 O         1.010537        -0.032582         2.539727
 C         1.693222        -1.206041         2.812014
 O         2.597378        -1.590547         1.707886
 C         1.937680        -1.385852         0.512334
 H         3.450362         1.233104         0.680048
 H         3.529222         0.650819        -1.056302
 H         2.582017         2.093352        -0.725745
 H        -0.173195         0.273150        -1.233519
 H         0.989958        -0.842733        -1.870692
 H        -0.382705        -1.997468         0.378075
 H        -0.387005         0.691579         1.148464
 H         2.265772        -1.146551         3.764655
 H         0.968877        -2.057271         2.885835
 H         2.481171        -1.956152        -0.351849
