19
Iteration:  4540
 C         2.850913         1.050078        -0.172700
 C         1.711879         0.130357        -0.001744
 C         0.618082        -0.419016        -0.942449
 C         0.390460        -1.232006         0.413473
 C         0.623692         0.062922         1.118085
 O         0.926611        -0.070512         2.508254
 C         1.660420        -1.273669         2.705356
 O         2.705454        -1.434806         1.725603
 C         1.939297        -1.405121         0.498249
 H         3.461727         0.960149         0.720799
 H         3.484102         0.893619        -1.082466
 H         2.520919         2.083461        -0.266498
 H        -0.280655         0.257968        -1.048753
 H         0.761069        -0.963513        -1.838361
 H        -0.339519        -2.083943         0.449353
 H        -0.176559         0.789864         1.061187
 H         2.048861        -1.283131         3.730545
 H         1.068470        -2.153608         2.767390
 H         2.237614        -2.350849        -0.159089
