19
Iteration:  2064
 C         2.594684         1.250053         0.014991
 C         1.684661         0.009584         0.040791
 C         0.562430        -0.400525        -0.976503
 C         0.330823        -1.233519         0.309221
 C         0.690019         0.138152         1.143646
 O         1.257085         0.077276         2.537179
 C         1.776231        -1.407248         2.708016
 O         2.623434        -1.655284         1.627925
 C         1.894311        -1.476993         0.442312
 H         3.111417         1.336089         0.930755
 H         3.015910         1.224488        -0.978489
 H         1.905958         2.048158        -0.140237
 H        -0.038474         0.520932        -1.198136
 H         0.925845        -0.844494        -1.900193
 H        -0.432206        -2.005530         0.661590
 H         0.006842         0.986600         1.144429
 H         2.388178        -1.311204         3.577034
 H         0.867472        -2.022801         2.815107
 H         2.208352        -2.222731        -0.251471
