19
Iteration:  2202charge 0 multiplicity 1
 C         2.748353         1.225858        -0.167291
 C         1.662284         0.141645         0.127953
 C         0.590818        -0.399580        -0.800062
 C         0.400150        -1.343946         0.328042
 C         0.550232         0.033746         1.219588
 O         1.174082         0.019854         2.518595
 C         1.669564        -1.288394         2.678939
 O         2.589327        -1.641013         1.616038
 C         1.984001        -1.398286         0.404871
 H         3.495883         1.159363         0.596772
 H         3.206803         1.080970        -1.092271
 H         2.661443         2.308673        -0.300758
 H        -0.268275         0.155688        -0.823200
 H         0.832285        -0.714714        -1.835946
 H        -0.328827        -2.108300         0.365754
 H        -0.310572         0.712657         1.211702
 H         2.303861        -1.317496         3.555567
 H         0.802573        -2.032623         2.584748
 H         2.562182        -1.940543        -0.423912
