19
Iteration:  1767
 C         2.685338         1.331489        -0.199055
 C         1.759655         0.077898         0.096716
 C         0.664223        -0.413351        -0.915275
 C         0.185417        -1.176507         0.401391
 C         0.594125         0.089781         1.141017
 O         1.139215        -0.066409         2.568821
 C         1.795992        -1.337693         2.730113
 O         2.655760        -1.645176         1.623733
 C         1.872684        -1.508917         0.472096
 H         3.468275         1.368528         0.519243
 H         3.111927         1.210606        -1.214477
 H         1.890326         2.175040        -0.188404
 H         0.089621         0.354422        -1.327382
 H         1.202080        -0.914091        -1.713382
 H        -0.650697        -1.957387         0.346952
 H        -0.063010         0.974560         1.108747
 H         2.550148        -1.332637         3.565953
 H         1.092082        -2.109390         2.861907
 H         2.337157        -2.122823        -0.265099
