19
Iteration:  1744
 C         2.605490         1.237321        -0.125028
 C         1.676915         0.105668         0.055432
 C         0.566814        -0.386338        -0.926033
 C         0.456213        -1.255919         0.384773
 C         0.639365         0.047475         1.227690
 O         1.243468         0.016709         2.477382
 C         1.722684        -1.249661         2.718906
 O         2.523720        -1.784953         1.677690
 C         1.956252        -1.359505         0.386281
 H         3.252998         1.095920         0.738080
 H         3.179630         1.193790        -1.039213
 H         1.922976         2.180027        -0.061264
 H        -0.184882         0.320130        -1.139804
 H         0.964482        -0.813330        -1.844187
 H        -0.212731        -2.187011         0.426832
 H         0.011375         0.914985         1.146823
 H         2.420513        -1.246248         3.555426
 H         0.880102        -1.879200         2.942839
 H         2.444507        -1.942536        -0.377145
