19
Iteration:  3873
 C         2.796538         1.180427        -0.226599
 C         1.697461         0.115974         0.061907
 C         0.529287        -0.399717        -0.861040
 C         0.397389        -1.228531         0.397810
 C         0.595956         0.042381         1.183568
 O         0.990107         0.008013         2.534458
 C         1.696684        -1.307104         2.723201
 O         2.636588        -1.678460         1.684373
 C         2.056155        -1.380845         0.382998
 H         3.278540         1.498623         0.760510
 H         3.622103         0.733319        -0.844110
 H         2.333021         2.002088        -0.833379
 H        -0.243227         0.438884        -0.898511
 H         0.775954        -0.922037        -1.736310
 H        -0.320083        -2.059089         0.447773
 H        -0.178463         0.900196         1.230047
 H         2.329179        -1.333529         3.624706
 H         0.820897        -1.926243         2.607967
 H         2.754514        -1.860360        -0.305317
