19
Iteration:  2974
 C         2.833811         1.132721        -0.104649
 C         1.697696         0.148397         0.071101
 C         0.557447        -0.411308        -0.943765
 C         0.392311        -1.224791         0.351911
 C         0.657539         0.046208         1.208752
 O         0.995059        -0.110377         2.592509
 C         1.757140        -1.303046         2.792748
 O         2.571419        -1.531297         1.597710
 C         1.909818        -1.373748         0.284786
 H         3.664041         1.236963         0.682228
 H         3.262604         0.892545        -1.041163
 H         2.443654         2.200866        -0.251379
 H        -0.329657         0.077955        -1.330615
 H         1.011475        -1.055067        -1.803390
 H        -0.366719        -2.007687         0.534230
 H        -0.014781         0.827000         1.235235
 H         2.430735        -0.878141         3.541449
 H         1.163250        -2.018327         3.198392
 H         2.431211        -2.163834        -0.246010
