19
Iteration:    25charge 0 multiplicity 1
 C         2.734846         1.176479        -0.222101
 C         1.698494         0.114480         0.066786
 C         0.575446        -0.281576        -0.864091
 C         0.430310        -1.289132         0.291579
 C         0.565138        -0.008951         1.147008
 O         1.009914        -0.003350         2.553018
 C         1.976999        -1.106719         2.842303
 O         2.480522        -1.835855         1.640076
 C         1.951649        -1.446935         0.408234
 H         3.367832         1.398930         0.695042
 H         3.354440         0.956081        -1.075120
 H         2.162332         2.133544        -0.501393
 H        -0.253861         0.400190        -0.900838
 H         0.765961        -0.683855        -1.898698
 H        -0.394269        -2.112725         0.500022
 H        -0.206092         0.766857         1.109785
 H         2.799371        -0.532675         3.341390
 H         1.362315        -1.775757         3.438006
 H         2.430055        -2.009389        -0.340120
