19
Iteration:    62
 C         2.643742         1.209592        -0.282181
 C         1.648967         0.186502         0.037553
 C         0.643742        -0.481842        -0.851049
 C         0.426256        -1.210322         0.518763
 C         0.674938         0.127188         1.164818
 O         1.242298        -0.026536         2.537456
 C         1.564808        -1.369192         2.641752
 O         2.655616        -1.582314         1.650020
 C         1.894731        -1.426634         0.491412
 H         3.246588         1.381499         0.615943
 H         3.372584         0.863783        -1.090290
 H         2.188594         2.176043        -0.527455
 H        -0.326927        -0.008303        -1.167679
 H         1.140427        -1.052439        -1.630006
 H        -0.425898        -1.842999         0.769378
 H        -0.116298         0.898589         1.112324
 H         1.920691        -1.709868         3.634148
 H         0.847078        -2.242587         2.460745
 H         2.265009        -2.121028        -0.331741
