19
Iteration:  4721
 C         2.751932         1.134594        -0.200086
 C         1.747655         0.075434         0.026233
 C         0.641529        -0.398713        -0.931626
 C         0.342545        -1.229574         0.351716
 C         0.606631         0.064314         1.113306
 O         0.984718        -0.068589         2.501382
 C         1.715861        -1.255817         2.775176
 O         2.655309        -1.553140         1.745829
 C         1.958696        -1.389492         0.497202
 H         3.489261         1.048861         0.649434
 H         3.338638         0.735179        -1.076265
 H         2.475374         2.242474        -0.252117
 H        -0.130823         0.388070        -1.230348
 H         0.898703        -0.986547        -1.844694
 H        -0.494737        -1.932012         0.383704
 H        -0.242113         0.784186         0.983478
 H         2.411758        -1.001725         3.656412
 H         1.012708        -2.142413         3.019157
 H         2.257120        -2.177305        -0.329302
