19
Iteration:  1754
 C         2.561697         1.207070        -0.125271
 C         1.695690         0.091020         0.085507
 C         0.681265        -0.368659        -0.942993
 C         0.370245        -1.193706         0.336096
 C         0.639889         0.072140         1.218421
 O         1.201204        -0.010204         2.504123
 C         1.770437        -1.277596         2.744017
 O         2.589115        -1.728999         1.645138
 C         1.928858        -1.449564         0.408026
 H         3.363576         1.452954         0.553521
 H         3.014734         1.163398        -1.094262
 H         2.015760         2.227854        -0.075834
 H        -0.093369         0.331106        -1.183897
 H         0.941957        -1.085268        -1.722506
 H        -0.548951        -1.726573         0.629163
 H        -0.197511         0.782037         1.259494
 H         2.323862        -1.135952         3.664165
 H         0.951830        -2.041333         2.794924
 H         2.249772        -2.097546        -0.405366
