19
Iteration:  1290charge 0 multiplicity 1
 C         2.654096         1.335812        -0.252776
 C         1.724430         0.109330         0.048914
 C         0.604292        -0.421334        -0.888272
 C         0.349742        -1.229625         0.471790
 C         0.711532         0.037295         1.173507
 O         1.044633        -0.171478         2.533584
 C         1.774036        -1.275899         2.751606
 O         2.609318        -1.629466         1.613655
 C         1.918042        -1.413296         0.381972
 H         2.968110         1.792582         0.656276
 H         3.508227         0.812654        -0.804193
 H         2.286517         2.102353        -0.950921
 H        -0.163295         0.357380        -1.137232
 H         0.893793        -0.981108        -1.782230
 H        -0.439034        -1.775208         1.137517
 H         0.167375         1.050481         1.324421
 H         2.300707        -0.966113         3.666316
 H         1.119563        -2.093498         3.106251
 H         2.494621        -2.182569        -0.323074
