19
Iteration:  4798charge 0 multiplicity 1
 C         2.679936         1.276390        -0.194960
 C         1.738928         0.125682         0.004179
 C         0.662580        -0.482005        -0.973313
 C         0.350768        -1.223238         0.350306
 C         0.699795         0.104908         1.129186
 O         1.145257        -0.004996         2.487783
 C         1.658985        -1.303451         2.812419
 O         2.517243        -1.656343         1.795132
 C         1.983067        -1.478023         0.433535
 H         3.321212         1.234249         0.700663
 H         3.322210         1.232659        -1.104981
 H         2.030289         2.186870        -0.197677
 H        -0.080380         0.252774        -1.328541
 H         0.819397        -1.158522        -1.800402
 H        -0.404707        -2.019785         0.471558
 H        -0.049807         0.925499         0.976247
 H         2.108376        -1.206696         3.842678
 H         0.917298        -2.007694         3.036225
 H         2.565498        -2.084403        -0.362133
