19
Iteration:   352charge 0 multiplicity 1
 C         2.687208         1.168082        -0.215870
 C         1.725197         0.034614         0.082767
 C         0.586772        -0.438932        -0.846583
 C         0.229149        -1.225830         0.437668
 C         0.715032         0.064726         1.180502
 O         1.175992        -0.017352         2.544886
 C         1.674557        -1.297232         2.716611
 O         2.594552        -1.592731         1.627960
 C         1.999916        -1.379336         0.410827
 H         3.228608         1.617098         0.683926
 H         3.339037         0.901752        -1.032273
 H         1.998628         2.022330        -0.556224
 H        -0.048754         0.377100        -1.174866
 H         1.005667        -0.982125        -1.769951
 H        -0.678956        -1.819174         0.554570
 H         0.021728         0.981141         1.021524
 H         2.369602        -1.183635         3.557305
 H         0.983418        -2.177673         2.588163
 H         2.477038        -2.073330        -0.329059
