19
Iteration:   310charge 0 multiplicity 1
 C         2.813927         1.142874        -0.048937
 C         1.630633         0.181288        -0.009807
 C         0.448678        -0.462975        -0.915378
 C         0.348632        -1.310888         0.341565
 C         0.599935         0.059241         1.142895
 O         1.184445        -0.008761         2.452067
 C         1.844386        -1.190145         2.812288
 O         2.570549        -1.644189         1.661833
 C         1.908004        -1.372506         0.387124
 H         3.206530         1.180374         0.988323
 H         3.610209         0.760329        -0.668795
 H         2.649308         2.167292        -0.456544
 H        -0.445143         0.140197        -1.152795
 H         0.744424        -0.913440        -1.902526
 H        -0.394318        -2.161290         0.686230
 H        -0.261704         0.782098         1.314327
 H         2.590558        -1.154653         3.675543
 H         1.067659        -2.015158         3.051134
 H         2.456961        -1.881246        -0.386754
