19
Iteration:   434charge 0 multiplicity 1
 C         2.696614         1.199675        -0.179394
 C         1.697521         0.098923         0.041101
 C         0.524171        -0.438218        -0.915231
 C         0.309109        -1.188947         0.381392
 C         0.597558         0.058471         1.163433
 O         1.157591        -0.046480         2.521512
 C         1.806016        -1.240035         2.745861
 O         2.643302        -1.601015         1.678981
 C         1.953782        -1.475486         0.437405
 H         3.492654         1.061816         0.557696
 H         3.231701         1.044788        -1.149370
 H         2.390749         2.218067        -0.073023
 H        -0.112108         0.456858        -1.114037
 H         0.681940        -1.027566        -1.802652
 H        -0.545535        -1.966144         0.425599
 H        -0.223307         0.771039         1.173042
 H         2.290780        -1.185404         3.766280
 H         1.035544        -2.023926         2.741612
 H         2.365785        -2.144292        -0.332288
