19
Iteration:  1935
 C         2.727283         1.302299        -0.159168
 C         1.623066         0.137559         0.080693
 C         0.566379        -0.401635        -0.859661
 C         0.396376        -1.280708         0.367630
 C         0.592377         0.045260         1.191038
 O         1.227970        -0.007135         2.473609
 C         1.722663        -1.302961         2.753847
 O         2.555734        -1.696695         1.632970
 C         1.931202        -1.384538         0.382589
 H         3.434265         1.207017         0.776260
 H         3.509393         1.084486        -0.959440
 H         2.364933         2.308869        -0.125597
 H        -0.379780         0.085354        -1.103162
 H         1.014188        -0.923937        -1.673951
 H        -0.258566        -2.166664         0.346081
 H        -0.274683         0.694114         1.380473
 H         2.454006        -1.247953         3.543414
 H         0.893564        -2.089818         2.871399
 H         2.426708        -2.054225        -0.353771
