19
Iteration:  2794
 C         2.714707         1.093989        -0.034478
 C         1.696806         0.087413         0.128804
 C         0.575180        -0.391639        -0.910311
 C         0.351076        -1.216913         0.366146
 C         0.611180         0.064191         1.150923
 O         1.067575         0.002553         2.534832
 C         1.771453        -1.312942         2.651310
 O         2.656352        -1.577912         1.641015
 C         1.941727        -1.388017         0.373777
 H         3.539731         1.131080         0.605887
 H         3.287873         1.186183        -1.048001
 H         2.335633         2.126334         0.052297
 H        -0.262757         0.378198        -1.146426
 H         0.761657        -1.024294        -1.753253
 H        -0.370446        -2.052978         0.509961
 H        -0.229283         0.703009         0.880252
 H         2.427081        -1.350687         3.478081
 H         0.963482        -2.064434         2.724829
 H         2.455151        -2.039151        -0.334460
