19
Iteration:   112
 C         2.726452         1.178916        -0.324881
 C         1.695486         0.174446         0.026659
 C         0.629945        -0.307877        -0.904886
 C         0.416217        -1.275669         0.295602
 C         0.578485         0.037306         1.270217
 O         1.070923        -0.081679         2.531719
 C         1.871945        -1.221253         2.830936
 O         2.491370        -1.653773         1.714789
 C         1.887024        -1.482104         0.435839
 H         3.431102         1.403094         0.511543
 H         3.308779         0.949125        -1.169090
 H         2.207484         2.160489        -0.510846
 H        -0.131406         0.454316        -0.953200
 H         0.835401        -0.734168        -1.931018
 H        -0.166897        -2.287513         0.387045
 H        -0.238170         0.783824         1.124638
 H         2.759757        -0.921622         3.506153
 H         1.421176        -2.080750         3.253960
 H         2.337502        -2.190441        -0.219558
