19
Iteration:  1445charge 0 multiplicity 1
 C         2.744162         1.202168        -0.236978
 C         1.713462         0.140283         0.078273
 C         0.530857        -0.362497        -0.864131
 C         0.400589        -1.299894         0.430446
 C         0.586970        -0.018200         1.209891
 O         1.159788        -0.015072         2.499394
 C         1.725843        -1.344494         2.725037
 O         2.582166        -1.601105         1.653682
 C         1.939935        -1.300451         0.404614
 H         3.501310         1.325424         0.583034
 H         3.327332         0.777848        -1.100419
 H         2.164933         2.039745        -0.444394
 H        -0.419090         0.168114        -1.041532
 H         0.914856        -0.782994        -1.734799
 H        -0.026167        -2.296776         0.622851
 H        -0.231551         0.739772         1.110434
 H         2.320178        -1.435398         3.691535
 H         0.827842        -2.082511         2.865810
 H         2.484348        -1.775262        -0.471912
