19
Iteration:  4030charge 0 multiplicity 1
 C         2.762633         1.093180        -0.218570
 C         1.716765         0.151447         0.078677
 C         0.627533        -0.325947        -0.969747
 C         0.386445        -1.302051         0.343872
 C         0.623951        -0.000837         1.235583
 O         0.993807        -0.109445         2.555821
 C         1.695183        -1.242542         2.776156
 O         2.612503        -1.541740         1.678299
 C         1.982279        -1.336022         0.398940
 H         3.233245         1.328877         0.721818
 H         3.559966         0.536250        -0.783187
 H         2.503140         1.975693        -0.825520
 H        -0.170675         0.281395        -1.260271
 H         1.004215        -0.936501        -1.832446
 H        -0.555403        -1.904052         0.529373
 H        -0.127288         0.843489         1.210106
 H         2.336896        -1.129734         3.728810
 H         0.967623        -2.035812         2.963468
 H         2.442575        -1.967977        -0.439681
