19
Iteration:  1796charge 0 multiplicity 1
 C         2.751904         1.126435        -0.258184
 C         1.700440         0.199198        -0.007394
 C         0.496789        -0.353353        -0.903171
 C         0.455340        -1.165364         0.472778
 C         0.647611         0.096754         1.172475
 O         0.991149        -0.175077         2.613857
 C         1.746942        -1.344437         2.787576
 O         2.608721        -1.570433         1.626209
 C         2.003842        -1.390584         0.381345
 H         3.490142         1.151968         0.556896
 H         3.224758         0.758130        -1.136894
 H         2.323855         2.146801        -0.365806
 H        -0.332117         0.376245        -1.102684
 H         0.924466        -0.900910        -1.771934
 H        -0.278678        -1.903277         0.664205
 H        -0.274125         0.698310         1.096477
 H         2.520349        -1.234307         3.498171
 H         1.051548        -2.279217         2.938392
 H         2.550062        -1.890913        -0.464860
