19
Iteration:   942
 C         2.589406         1.196442        -0.274527
 C         1.662443         0.128488         0.103603
 C         0.598658        -0.337076        -0.851025
 C         0.405966        -1.274296         0.364145
 C         0.690808         0.043521         1.179760
 O         1.184927        -0.040843         2.500234
 C         1.748632        -1.294269         2.768967
 O         2.526385        -1.660832         1.659337
 C         1.989104        -1.376101         0.448399
 H         3.275385         1.334287         0.537142
 H         3.255580         0.771717        -1.114310
 H         2.145772         2.162253        -0.491134
 H        -0.233707         0.383061        -1.131271
 H         1.065023        -0.749216        -1.803754
 H        -0.408760        -2.101511         0.575819
 H        -0.146481         0.715755         1.140324
 H         2.422867        -1.200006         3.602578
 H         0.972251        -2.129769         3.044773
 H         2.487691        -1.983140        -0.289366
