19
Iteration:  3131charge 0 multiplicity 1
 C         2.841325         1.157997        -0.053134
 C         1.646322         0.179202         0.069443
 C         0.499504        -0.367342        -0.938057
 C         0.435955        -1.242858         0.451976
 C         0.550466         0.024653         1.147814
 O         1.130253        -0.069754         2.442018
 C         1.752000        -1.275888         2.680861
 O         2.591466        -1.679508         1.686484
 C         1.966543        -1.309817         0.400646
 H         3.564310         1.177293         0.736028
 H         3.206249         0.576574        -0.961217
 H         2.358581         2.127834        -0.336371
 H        -0.480578         0.259300        -0.932575
 H         0.730581        -0.814917        -1.955961
 H        -0.421962        -1.915008         0.574256
 H        -0.201695         0.826325         1.062307
 H         2.318441        -1.228872         3.624047
 H         0.931583        -2.105810         2.831374
 H         2.580325        -1.888140        -0.318937
