19
Iteration:  3688
 C         2.803217         1.075467        -0.278072
 C         1.697801         0.176573         0.158098
 C         0.528374        -0.318272        -0.880918
 C         0.390390        -1.347683         0.326988
 C         0.580390         0.098129         1.206959
 O         1.035556        -0.075468         2.527833
 C         1.767173        -1.342166         2.696285
 O         2.618123        -1.556443         1.718976
 C         1.973820        -1.316708         0.435227
 H         3.445102         1.473378         0.562578
 H         3.561283         0.478399        -0.785144
 H         2.512376         1.925054        -0.811483
 H        -0.417073         0.295286        -1.120884
 H         0.892621        -0.816989        -1.752753
 H        -0.381400        -2.099401         0.420693
 H        -0.372719         0.710275         1.196762
 H         2.314392        -1.181281         3.623456
 H         1.051244        -2.146234         2.651861
 H         2.475572        -1.811161        -0.408265
