19
Iteration:  3534charge 0 multiplicity 1
 C         2.729157         1.191291        -0.270821
 C         1.763960         0.066116         0.070518
 C         0.669514        -0.363847        -0.831726
 C         0.360958        -1.201807         0.364561
 C         0.625711         0.025710         1.210944
 O         1.067296        -0.074521         2.626407
 C         1.717743        -1.300477         2.659684
 O         2.585986        -1.542187         1.637727
 C         1.906852        -1.453552         0.424058
 H         3.356851         1.265443         0.605268
 H         3.318732         0.991949        -1.224037
 H         2.121240         2.101640        -0.272649
 H        -0.026874         0.440083        -1.122130
 H         0.908236        -0.879205        -1.809663
 H        -0.421154        -1.972054         0.447764
 H        -0.119158         0.899145         1.200841
 H         2.365256        -1.212991         3.542370
 H         0.973240        -2.179678         2.799686
 H         2.221301        -2.130640        -0.420579
