19
Iteration:  2075
 C         2.579619         1.213214        -0.003803
 C         1.702419         0.063707         0.065769
 C         0.584512        -0.413827        -0.937612
 C         0.342971        -1.248615         0.386377
 C         0.651530         0.141194         1.220325
 O         1.268544         0.051992         2.459616
 C         1.752654        -1.300109         2.686750
 O         2.625233        -1.720765         1.665452
 C         1.896656        -1.441004         0.324113
 H         3.218728         1.367838         0.837813
 H         3.379739         1.321699        -0.748713
 H         1.897591         2.048055         0.044852
 H        -0.319922         0.232476        -1.157007
 H         0.938283        -0.942819        -1.822656
 H        -0.468800        -2.053520         0.513154
 H        -0.028524         0.974476         1.084276
 H         2.247105        -1.383208         3.634539
 H         0.869380        -1.982089         2.673230
 H         2.286920        -2.042007        -0.471956
