19
Iteration:  3722charge 0 multiplicity 1
 C         2.641456         1.283888        -0.212663
 C         1.748273         0.053941        -0.031555
 C         0.601958        -0.444616        -0.873848
 C         0.427869        -1.214866         0.371357
 C         0.704594         0.144396         1.191416
 O         1.094397         0.024410         2.559231
 C         1.701900        -1.334259         2.689252
 O         2.557585        -1.688121         1.689888
 C         1.929226        -1.455433         0.432611
 H         3.239797         1.326482         0.753366
 H         3.409543         1.377532        -1.030680
 H         2.177222         2.221878        -0.213574
 H        -0.225709         0.286854        -1.274246
 H         0.991697        -1.047723        -1.684544
 H        -0.294912        -1.957964         0.685796
 H        -0.114222         0.921815         1.250783
 H         2.203576        -1.535345         3.655701
 H         0.979939        -2.135486         2.679467
 H         2.573243        -2.217824        -0.114152
