19
Iteration:  1163charge 0 multiplicity 1
 C         2.729449         1.148879        -0.237827
 C         1.581297         0.115518         0.158721
 C         0.532325        -0.325316        -0.908063
 C         0.376632        -1.253283         0.295799
 C         0.548038        -0.066045         1.209974
 O         1.098709        -0.007636         2.580721
 C         1.803109        -1.210115         2.787464
 O         2.667765        -1.620061         1.651587
 C         2.000988        -1.409222         0.357434
 H         3.686671         0.822279         0.291697
 H         3.004623         0.896566        -1.302089
 H         2.580387         2.205759        -0.214589
 H        -0.224753         0.530113        -1.024940
 H         0.842137        -0.908780        -1.762537
 H        -0.371441        -2.083790         0.329682
 H        -0.267453         0.593324         1.224132
 H         2.522437        -0.973566         3.662090
 H         1.002393        -1.999150         2.965500
 H         2.533670        -2.025330        -0.349247
