19
Iteration:  3189charge 0 multiplicity 1
 C         2.815479         1.148181        -0.250853
 C         1.730227         0.167394        -0.010021
 C         0.500499        -0.357980        -0.868806
 C         0.363132        -1.185631         0.393045
 C         0.631635         0.079905         1.224329
 O         0.980392        -0.179673         2.533125
 C         1.769155        -1.321335         2.731904
 O         2.677948        -1.643034         1.715986
 C         1.925663        -1.333366         0.421975
 H         3.466772         1.232562         0.662591
 H         3.499898         0.964067        -1.093465
 H         2.508777         2.129529        -0.444116
 H        -0.268536         0.448702        -1.176236
 H         0.835090        -0.784926        -1.779659
 H        -0.503524        -1.854810         0.501912
 H        -0.147773         0.931652         1.061924
 H         2.322360        -1.136410         3.685446
 H         1.079649        -2.198643         2.804419
 H         2.278751        -1.923334        -0.408523
