19
Iteration:  1603
 C         2.725435         1.173276        -0.231127
 C         1.662395         0.151174         0.031441
 C         0.586708        -0.357913        -0.907395
 C         0.435081        -1.269490         0.384673
 C         0.506738         0.038467         1.263949
 O         1.141983        -0.075194         2.571837
 C         1.740517        -1.294545         2.674848
 O         2.633344        -1.536280         1.663851
 C         1.942536        -1.445436         0.434797
 H         3.605175         1.063338         0.348822
 H         3.116478         1.199203        -1.209695
 H         2.339651         2.224360        -0.070269
 H        -0.150714         0.364582        -1.185976
 H         0.935548        -0.999202        -1.751117
 H        -0.402281        -2.056018         0.384287
 H        -0.240271         0.810032         1.376195
 H         2.362153        -1.390822         3.578308
 H         0.999605        -2.192089         2.709703
 H         2.274243        -2.165275        -0.267463
