19
Iteration:  1374
 C         2.641094         1.198635        -0.099339
 C         1.686532         0.059083         0.015557
 C         0.549697        -0.360441        -0.920348
 C         0.357419        -1.270957         0.385692
 C         0.651866         0.055368         1.207073
 O         1.074199         0.021018         2.548703
 C         1.804627        -1.249069         2.713040
 O         2.697926        -1.622125         1.630248
 C         1.948688        -1.483837         0.395824
 H         3.530150         1.123716         0.538339
 H         2.975320         1.316867        -1.119833
 H         1.989356         2.116845         0.203070
 H        -0.154542         0.325798        -1.357774
 H         0.958919        -1.171182        -1.606582
 H        -0.573388        -1.809472         0.543154
 H         0.014720         0.899804         0.993933
 H         2.286046        -1.128013         3.655166
 H         1.168478        -2.170213         2.749635
 H         2.212602        -2.253519        -0.337565
