19
Iteration:   849charge 0 multiplicity 1
 C         2.734019         1.066993        -0.136223
 C         1.670592         0.117560         0.061052
 C         0.434670        -0.463523        -0.873431
 C         0.432129        -1.292855         0.355385
 C         0.667842         0.117999         1.214427
 O         1.112003         0.039773         2.546391
 C         1.745564        -1.266214         2.689043
 O         2.603857        -1.635868         1.602117
 C         1.994916        -1.293313         0.395564
 H         3.346515         1.088438         0.849162
 H         3.379860         0.714210        -0.921726
 H         2.333535         2.109304        -0.244646
 H        -0.400132         0.239263        -1.035449
 H         0.693907        -1.001504        -1.826331
 H        -0.132127        -2.216477         0.529447
 H        -0.172845         0.880627         1.126093
 H         2.356315        -1.144682         3.677582
 H         0.928038        -2.006130         2.903530
 H         2.493340        -1.943182        -0.411986
