19
Iteration:  1349charge 0 multiplicity 1
 C         2.781872         1.167188        -0.136945
 C         1.637649         0.176300         0.027076
 C         0.512159        -0.468226        -0.811626
 C         0.470276        -1.315614         0.386521
 C         0.547548         0.028204         1.226031
 O         1.144500        -0.002693         2.462064
 C         1.750582        -1.306795         2.714834
 O         2.567424        -1.609894         1.616675
 C         1.975211        -1.275769         0.380802
 H         3.506142         1.066406         0.729035
 H         3.379493         0.937248        -1.034536
 H         2.409778         2.188421        -0.156608
 H        -0.521324        -0.030682        -0.965031
 H         0.857749        -0.982160        -1.719057
 H        -0.293429        -2.100815         0.717529
 H        -0.270374         0.721412         1.141804
 H         2.349152        -1.170760         3.652159
 H         1.050972        -2.100405         2.827965
 H         2.473571        -1.769139        -0.403868
