19
Iteration:   963charge 0 multiplicity 1
 C         2.771989         1.145198        -0.226768
 C         1.640741         0.158096         0.028283
 C         0.493964        -0.399755        -0.898743
 C         0.425962        -1.339007         0.304422
 C         0.518891         0.041169         1.275480
 O         1.223191         0.076388         2.614163
 C         1.703170        -1.251102         2.727940
 O         2.638829        -1.701854         1.715410
 C         1.978999        -1.337045         0.322363
 H         3.483798         1.348411         0.523844
 H         3.291409         1.110025        -1.217685
 H         2.206627         2.109276        -0.248057
 H        -0.360512         0.343556        -1.008166
 H         0.756399        -0.878600        -1.910623
 H        -0.243257        -2.331116         0.273722
 H        -0.434338         0.496696         1.436056
 H         2.183156        -1.420675         3.648566
 H         0.924229        -1.980542         2.680250
 H         2.438793        -1.979241        -0.346778
