19
Iteration:  2271charge 0 multiplicity 1
 C         2.658030         1.229064        -0.084408
 C         1.718737         0.156148         0.048602
 C         0.655901        -0.417959        -0.905795
 C         0.411709        -1.267784         0.382500
 C         0.547475         0.083361         1.238808
 O         1.107063        -0.005130         2.505584
 C         1.796051        -1.253856         2.719904
 O         2.542870        -1.781348         1.593322
 C         1.965602        -1.386055         0.422743
 H         3.075039         1.505211         0.886358
 H         3.415076         1.102576        -0.923499
 H         2.299049         2.165609        -0.554258
 H        -0.228735         0.290007        -1.175412
 H         0.930928        -0.966134        -1.809294
 H        -0.454841        -2.066495         0.387648
 H        -0.235328         0.860898         1.183690
 H         2.627327        -1.054743         3.465313
 H         1.205802        -2.103374         3.073953
 H         2.359487        -1.853800        -0.490133
