19
Iteration:  1947
 C         2.735138         1.249309        -0.118838
 C         1.719007         0.185839         0.007804
 C         0.520897        -0.495643        -0.903591
 C         0.422131        -1.239567         0.462781
 C         0.645556         0.121075         1.186860
 O         1.098356        -0.068557         2.535571
 C         1.750623        -1.343148         2.654408
 O         2.612127        -1.659152         1.614503
 C         1.934178        -1.381514         0.438176
 H         3.380408         1.237962         0.860096
 H         3.273103         1.075116        -1.093498
 H         2.267939         2.219210        -0.269975
 H        -0.269563         0.267089        -0.992953
 H         0.749327        -0.866690        -1.887323
 H        -0.372787        -1.878062         0.777469
 H        -0.162928         0.845024         1.045213
 H         2.237399        -1.272663         3.576065
 H         0.930403        -2.131749         2.756252
 H         2.308882        -1.993450        -0.410098
