19
Iteration:  1427
 C         2.698384         1.194940        -0.244974
 C         1.606491         0.254138         0.105677
 C         0.538911        -0.465706        -0.832709
 C         0.522936        -1.333244         0.382830
 C         0.606676         0.119173         1.244611
 O         1.087059         0.016106         2.572346
 C         1.724952        -1.217132         2.682472
 O         2.563312        -1.807382         1.635330
 C         2.066705        -1.357308         0.349477
 H         3.419818         1.040995         0.599393
 H         3.111198         0.985742        -1.200649
 H         2.464717         2.325336        -0.262576
 H        -0.277783         0.291587        -0.943600
 H         0.850405        -0.893769        -1.859242
 H        -0.346353        -2.103911         0.443331
 H        -0.297651         0.689716         1.200632
 H         2.321994        -1.100230         3.565111
 H         1.094082        -2.048993         2.854932
 H         2.508808        -1.849510        -0.471202
