19
Iteration:  4527
 C         2.859887         1.039954        -0.205974
 C         1.709709         0.127154         0.009038
 C         0.605569        -0.464509        -0.864859
 C         0.458626        -1.279970         0.353524
 C         0.602097         0.151002         1.169785
 O         0.884244        -0.119102         2.543386
 C         1.671573        -1.260525         2.735216
 O         2.622063        -1.431441         1.672673
 C         1.976247        -1.416507         0.461821
 H         3.404452         0.920123         0.690356
 H         3.507187         0.630926        -0.971372
 H         2.659415         2.075006        -0.368697
 H        -0.255657         0.205999        -1.219547
 H         1.073424        -0.883581        -1.692582
 H        -0.504580        -1.833644         0.725598
 H        -0.119555         0.999984         1.102079
 H         2.352887        -1.019511         3.630759
 H         0.997102        -2.070319         2.583933
 H         2.607465        -1.955145        -0.343908
