19
Iteration:  2803
 C         2.725530         1.091889        -0.102515
 C         1.682968         0.060347         0.090357
 C         0.618626        -0.365415        -0.847042
 C         0.346432        -1.258994         0.372431
 C         0.584785         0.160441         1.155317
 O         0.999555        -0.056119         2.516214
 C         1.770978        -1.310293         2.621789
 O         2.720210        -1.565516         1.622969
 C         1.953298        -1.391321         0.408388
 H         3.384594         0.934007         0.746820
 H         3.325277         0.900740        -1.087217
 H         2.200013         2.071559         0.103255
 H        -0.160999         0.367699        -0.903760
 H         0.964805        -0.882602        -1.728843
 H        -0.405178        -1.980127         0.623045
 H        -0.152060         1.087083         1.257344
 H         2.219184        -1.196479         3.578736
 H         1.059065        -2.120505         2.643003
 H         2.295353        -2.056183        -0.354196
