19
Iteration:  3043
 C         2.747722         1.206090        -0.235955
 C         1.734484         0.165770         0.024296
 C         0.567351        -0.380962        -0.853066
 C         0.518227        -1.290575         0.394193
 C         0.580883         0.082857         1.239375
 O         1.116959        -0.015629         2.591440
 C         1.655520        -1.355336         2.752390
 O         2.511837        -1.702689         1.670395
 C         1.970546        -1.342975         0.309421
 H         3.367786         1.567640         0.552470
 H         3.503760         0.956895        -1.028979
 H         2.298052         2.206534        -0.516102
 H        -0.299278         0.207758        -1.197444
 H         0.879620        -0.971870        -1.794761
 H        -0.063317        -2.205005         0.361523
 H        -0.173303         0.969135         1.339500
 H         2.205333        -1.344677         3.677153
 H         0.831031        -1.998282         2.821376
 H         2.526677        -1.898585        -0.472295
