19
Iteration:  1023charge 0 multiplicity 1
 C         2.748411         1.252412        -0.174226
 C         1.643841         0.179362         0.055008
 C         0.627085        -0.373541        -0.947527
 C         0.296543        -1.300170         0.379638
 C         0.616329         0.047469         1.172264
 O         1.109036        -0.097175         2.582081
 C         1.886998        -1.250566         2.770671
 O         2.638056        -1.559838         1.644605
 C         1.818797        -1.533024         0.396457
 H         3.564221         1.194487         0.628019
 H         3.083738         0.825004        -1.099452
 H         2.331834         2.230984        -0.407809
 H        -0.233845         0.285495        -1.097552
 H         0.913971        -0.854698        -1.859938
 H        -0.481538        -1.960583         0.434025
 H        -0.123196         0.911826         1.109276
 H         2.526204        -0.941398         3.669185
 H         1.109854        -2.065524         3.059308
 H         2.136643        -2.359318        -0.392446
