19
Iteration:   385charge 0 multiplicity 1
 C         2.730852         1.246100        -0.429544
 C         1.674448         0.242991         0.006202
 C         0.567110        -0.340271        -0.887465
 C         0.381945        -1.251864         0.425667
 C         0.670175         0.028269         1.199482
 O         1.062023        -0.086818         2.565810
 C         1.758321        -1.289006         2.853503
 O         2.532536        -1.815546         1.721165
 C         2.014440        -1.339447         0.426316
 H         3.607520         1.338645         0.273495
 H         3.185706         0.996775        -1.392690
 H         2.289917         2.277025        -0.669015
 H        -0.279820         0.274141        -1.184468
 H         1.036835        -0.817173        -1.821739
 H        -0.423993        -1.924521         0.701467
 H        -0.187036         0.828035         1.200480
 H         2.400435        -0.976150         3.707324
 H         1.253719        -2.156449         3.350119
 H         2.467731        -1.954413        -0.386745
