19
Iteration:  4023charge 0 multiplicity 1
 C         2.831118         1.097694        -0.227553
 C         1.666669         0.119338         0.029262
 C         0.620997        -0.376110        -0.963231
 C         0.413736        -1.207193         0.386565
 C         0.546179         0.048396         1.216095
 O         0.907763        -0.060628         2.598202
 C         1.812568        -1.285534         2.753811
 O         2.614932        -1.567176         1.660025
 C         1.991745        -1.355329         0.395821
 H         3.256754         1.319311         0.782759
 H         3.542481         0.529105        -0.792293
 H         2.562781         2.084808        -0.711279
 H        -0.200943         0.342627        -1.244740
 H         1.116715        -0.913400        -1.852850
 H        -0.371240        -2.005477         0.433496
 H        -0.286691         0.739438         1.300028
 H         2.227118        -1.240082         3.763365
 H         1.126529        -2.188655         2.832024
 H         2.496792        -2.095291        -0.235555
