19
Iteration:  1491charge 0 multiplicity 1
 C         2.731222         1.223306        -0.198157
 C         1.740933         0.113890         0.055766
 C         0.566047        -0.450834        -0.829028
 C         0.396770        -1.229782         0.433344
 C         0.634906         0.114099         1.241349
 O         1.014171        -0.117213         2.507239
 C         1.803456        -1.326878         2.694986
 O         2.643971        -1.593549         1.596157
 C         1.901324        -1.380904         0.355765
 H         3.045095         1.730284         0.745890
 H         3.636071         0.950529        -0.694220
 H         2.129472         1.884269        -0.797732
 H        -0.067198         0.393947        -1.104934
 H         0.806363        -1.114623        -1.644736
 H        -0.525999        -1.762612         0.839602
 H        -0.167605         0.838193         1.217483
 H         2.424883        -1.136079         3.578306
 H         1.025520        -2.114563         3.036086
 H         2.304835        -2.037920        -0.388452
