19
Iteration:  4277charge 0 multiplicity 1
 C         2.564822         1.256974        -0.146832
 C         1.752082         0.055726         0.053408
 C         0.778708        -0.446303        -0.989922
 C         0.347292        -1.196401         0.311071
 C         0.677393         0.073237         1.128920
 O         1.253563         0.064307         2.507940
 C         1.596749        -1.212832         2.768613
 O         2.452696        -1.751051         1.724649
 C         1.978902        -1.507329         0.486755
 H         3.034082         1.574810         0.809001
 H         3.328064         1.089970        -0.989607
 H         1.800582         2.048029        -0.129843
 H         0.027658         0.335189        -1.471350
 H         1.237682        -1.148807        -1.652792
 H        -0.289843        -2.085920         0.469516
 H         0.000865         0.893789         1.074872
 H         2.385649        -1.173994         3.559555
 H         0.756717        -1.908492         3.119551
 H         2.504120        -1.899852        -0.360132
