19
Iteration:  3062charge 0 multiplicity 1
 C         2.671088         1.338637        -0.212063
 C         1.724181         0.179150         0.045895
 C         0.591561        -0.413532        -0.890213
 C         0.379852        -1.220882         0.383591
 C         0.679161         0.079224         1.162844
 O         1.138435        -0.028742         2.480931
 C         1.669629        -1.320828         2.702197
 O         2.572911        -1.832546         1.694353
 C         1.997555        -1.405437         0.508096
 H         3.312365         1.576493         0.692066
 H         3.335567         1.025644        -0.978383
 H         2.122493         2.327255        -0.399778
 H        -0.163707         0.299240        -1.114492
 H         0.913903        -0.902023        -1.888869
 H        -0.481488        -1.728934         0.753827
 H        -0.086414         0.790316         1.151284
 H         2.322685        -1.273804         3.573210
 H         0.881732        -2.150533         2.832463
 H         2.344165        -2.009539        -0.335501
