19
Iteration:  2825charge 0 multiplicity 1
 C         2.871278         1.150961        -0.194390
 C         1.687666         0.146912         0.056736
 C         0.541603        -0.355612        -0.935302
 C         0.352541        -1.202370         0.387510
 C         0.616886         0.015159         1.183270
 O         0.988744        -0.146971         2.592576
 C         1.750717        -1.344315         2.733970
 O         2.646664        -1.501687         1.644612
 C         1.939647        -1.353636         0.383884
 H         3.570207         1.256364         0.633228
 H         3.475870         0.705203        -1.072551
 H         2.460815         2.196829        -0.382636
 H        -0.273991         0.309584        -1.127211
 H         0.826917        -1.066844        -1.675136
 H        -0.385626        -1.971686         0.601144
 H        -0.301987         0.751506         1.219185
 H         2.346018        -1.243702         3.614803
 H         1.060982        -2.182694         2.826662
 H         2.363718        -2.039825        -0.325351
