19
Iteration:  4409charge 0 multiplicity 1
 C         2.725926         1.226237        -0.186336
 C         1.730046         0.052625         0.058227
 C         0.672551        -0.403778        -0.917022
 C         0.412171        -1.340295         0.322659
 C         0.574467         0.015932         1.179185
 O         1.096674         0.125734         2.449685
 C         1.667938        -1.254325         2.774613
 O         2.504584        -1.739353         1.766550
 C         2.015388        -1.383988         0.452064
 H         3.412277         1.447216         0.679681
 H         3.469330         1.001667        -1.095098
 H         2.223377         2.218167        -0.456150
 H        -0.027649         0.468766        -1.307995
 H         1.027211        -0.998866        -1.773020
 H        -0.412034        -2.097290         0.432760
 H        -0.218621         0.764850         1.187776
 H         2.221872        -1.091536         3.751146
 H         0.790413        -1.858045         2.677658
 H         2.744247        -1.972256        -0.258905
