19
Iteration:   182
 C         2.768353         1.104404         0.044866
 C         1.690945         0.028298         0.176676
 C         0.581664        -0.315363        -0.994246
 C         0.317983        -1.237498         0.206695
 C         0.585939         0.020207         1.178395
 O         0.904818        -0.280837         2.607562
 C         2.221020        -0.656365         2.605101
 O         2.376844        -1.813465         1.687276
 C         1.873673        -1.538546         0.368768
 H         3.501740         1.048799         0.838790
 H         3.409867         0.743404        -0.844184
 H         2.476126         2.151449        -0.005777
 H        -0.223103         0.453356        -1.140213
 H         0.906726        -0.832448        -1.862270
 H        -0.593028        -1.885832         0.228151
 H        -0.025589         0.896922         1.151647
 H         2.989666         0.111593         2.232757
 H         2.575772        -0.969020         3.570989
 H         2.412465        -2.076868        -0.422254
