19
Iteration:  1866charge 0 multiplicity 1
 C         2.745111         1.297485        -0.116701
 C         1.780980         0.119481         0.004850
 C         0.500197        -0.484911        -0.905282
 C         0.398030        -1.157919         0.398852
 C         0.613559         0.168515         1.156513
 O         1.039339        -0.104150         2.547994
 C         1.818056        -1.323084         2.743436
 O         2.597644        -1.697279         1.605213
 C         1.933571        -1.411065         0.385434
 H         3.062078         1.421478         0.902601
 H         3.548758         1.193124        -0.840129
 H         1.968397         2.085200        -0.279293
 H        -0.298121         0.137455        -1.213354
 H         0.790559        -1.236711        -1.622933
 H        -0.433864        -1.904252         0.728797
 H         0.012836         1.091354         1.146705
 H         2.625596        -1.066615         3.530027
 H         1.177980        -2.253939         2.993435
 H         2.316181        -2.131533        -0.313430
