19
Iteration:   298
 C         2.752074         1.091719        -0.103972
 C         1.642424         0.083162         0.085175
 C         0.528689        -0.376152        -0.944187
 C         0.360537        -1.211984         0.338592
 C         0.575633        -0.043181         1.227549
 O         1.139935        -0.003453         2.490043
 C         1.893241        -1.137054         2.772105
 O         2.525720        -1.686726         1.629364
 C         1.943154        -1.357369         0.337562
 H         3.242446         1.234591         0.917519
 H         3.500908         0.686415        -0.744688
 H         2.361324         2.129638        -0.376453
 H        -0.256841         0.312841        -1.215490
 H         0.923799        -1.163242        -1.675107
 H        -0.520024        -1.979716         0.522871
 H        -0.268684         0.738514         1.105941
 H         2.615976        -0.635296         3.498787
 H         1.232392        -1.956946         3.354190
 H         2.601138        -1.898180        -0.363476
