19
Iteration:   371
 C         2.703214         1.232826        -0.377910
 C         1.696788         0.157269        -0.012092
 C         0.600919        -0.373570        -0.937363
 C         0.431454        -1.166686         0.384472
 C         0.606391         0.137273         1.229918
 O         1.098880        -0.081661         2.563954
 C         1.809002        -1.329378         2.817459
 O         2.624388        -1.738180         1.753281
 C         1.843010        -1.424950         0.439273
 H         3.326742         1.475544         0.527328
 H         3.282462         0.916881        -1.240957
 H         2.108039         2.161762        -0.498623
 H        -0.163824         0.368032        -1.136900
 H         0.945273        -0.943096        -1.856770
 H        -0.220884        -1.972445         0.500417
 H        -0.312785         0.753581         1.323101
 H         2.479934        -1.207292         3.678141
 H         0.880216        -1.943572         2.850015
 H         2.252016        -2.270917        -0.247225
