19
Iteration:  4926
 C         2.694844         1.279975        -0.182495
 C         1.713431         0.072742        -0.025435
 C         0.660334        -0.423278        -0.972584
 C         0.403426        -1.311465         0.249513
 C         0.609988         0.006624         1.174597
 O         1.250003         0.078598         2.591701
 C         1.598470        -1.197026         2.843340
 O         2.509523        -1.737567         1.726400
 C         1.951647        -1.403077         0.431259
 H         3.371550         1.111235         0.665032
 H         3.186824         1.042147        -1.136919
 H         2.178096         2.236973        -0.123565
 H        -0.045453         0.318695        -1.350877
 H         1.022167        -1.137028        -1.923684
 H        -0.422683        -1.986038         0.351831
 H        -0.175848         0.770266         1.275594
 H         2.223786        -1.136200         3.709066
 H         0.806711        -1.932837         2.994619
 H         2.555249        -2.020310        -0.271730
