19
Iteration:  4602
 C         2.662221         1.321868        -0.173190
 C         1.789569         0.114400         0.055848
 C         0.677143        -0.510484        -0.931902
 C         0.346652        -1.279722         0.336477
 C         0.631864         0.071197         1.078950
 O         1.179504         0.026021         2.445075
 C         1.652869        -1.170000         2.796570
 O         2.482141        -1.821967         1.729894
 C         2.030995        -1.399673         0.527322
 H         3.311497         1.408961         0.696599
 H         3.260095         1.170560        -1.062224
 H         2.030875         2.209988        -0.055715
 H        -0.194493         0.181887        -1.158091
 H         1.042114        -1.114212        -1.780654
 H        -0.654558        -1.834278         0.240604
 H        -0.282848         0.745194         1.053796
 H         2.417280        -0.918599         3.662442
 H         0.857349        -1.973485         2.980861
 H         2.570049        -1.901609        -0.164410
