19
Iteration:  3585charge 0 multiplicity 1
 C         2.695383         1.281821        -0.114752
 C         1.648731         0.176087         0.040857
 C         0.619161        -0.384914        -0.916728
 C         0.438773        -1.315400         0.382689
 C         0.629507        -0.008861         1.188882
 O         1.312392         0.078067         2.456945
 C         1.660823        -1.270674         2.759170
 O         2.451525        -1.773198         1.691582
 C         1.967600        -1.439007         0.391452
 H         3.542309         1.298179         0.573639
 H         2.802616         1.258919        -1.173912
 H         2.108145         2.291253        -0.053495
 H        -0.126045         0.242299        -1.346350
 H         1.059630        -0.963704        -1.819862
 H        -0.241309        -2.196448         0.659568
 H        -0.290460         0.647106         1.241544
 H         2.157423        -1.264580         3.747588
 H         0.803797        -1.859466         2.993721
 H         2.482873        -1.786090        -0.483954
