19
Iteration:  1726
 C         2.741925         1.341033        -0.072948
 C         1.670303         0.230189         0.003984
 C         0.437881        -0.443880        -0.835763
 C         0.479688        -1.439299         0.301999
 C         0.651972         0.051278         1.162137
 O         1.283705         0.080709         2.470633
 C         1.693302        -1.278688         2.770823
 O         2.450078        -1.783096         1.651161
 C         2.011260        -1.392394         0.380138
 H         3.418409         1.427113         0.784093
 H         3.467815         1.132910        -0.925585
 H         2.397176         2.340308        -0.178310
 H        -0.489124         0.188222        -0.797382
 H         0.548759        -0.967315        -1.811966
 H        -0.337794        -2.079065         0.693343
 H        -0.359760         0.500798         1.139625
 H         2.393696        -1.243801         3.676734
 H         0.810181        -1.974255         2.831864
 H         2.613917        -1.890084        -0.396962
