19
Iteration:  4195
 C         2.859538         1.099671        -0.191684
 C         1.696239         0.102152         0.099968
 C         0.669674        -0.379617        -0.918958
 C         0.299008        -1.236783         0.364759
 C         0.565668         0.013685         1.216055
 O         0.997720        -0.024871         2.517523
 C         1.718057        -1.274392         2.689268
 O         2.618822        -1.459132         1.691247
 C         1.965533        -1.455407         0.455839
 H         3.541238         1.166969         0.650122
 H         3.410810         0.674407        -1.019134
 H         2.605084         2.054237        -0.686692
 H        -0.096080         0.312550        -1.152578
 H         1.169420        -0.844854        -1.875944
 H        -0.515077        -2.027802         0.382745
 H        -0.396157         0.633560         1.170060
 H         2.179168        -1.385936         3.726245
 H         0.875573        -2.036673         2.629224
 H         2.508996        -2.207673        -0.247327
