19
Iteration:  4393
 C         2.786724         1.144211        -0.207981
 C         1.712085         0.172536         0.078231
 C         0.656268        -0.403544        -0.908700
 C         0.508564        -1.288246         0.310623
 C         0.639868         0.047220         1.093656
 O         1.013316        -0.009894         2.547238
 C         1.613590        -1.173598         2.781801
 O         2.542943        -1.629459         1.715498
 C         1.950082        -1.485319         0.431826
 H         3.421873         1.362734         0.636332
 H         3.305359         0.758663        -0.993844
 H         2.333730         2.088588        -0.408209
 H        -0.235627         0.117311        -0.969981
 H         1.065765        -0.762293        -1.865222
 H        -0.202223        -2.093185         0.483216
 H        -0.194081         0.837123         1.047589
 H         2.371532        -1.021256         3.563373
 H         0.903514        -1.981224         3.127172
 H         2.356305        -2.217058        -0.282241
