19
Iteration:  3916
 C         2.651181         1.367154        -0.166331
 C         1.767977         0.130005         0.048543
 C         0.616766        -0.494468        -0.999499
 C         0.351892        -1.275990         0.316553
 C         0.639005         0.105853         1.173550
 O         1.193198         0.014726         2.531533
 C         1.676302        -1.298709         2.778247
 O         2.522908        -1.779559         1.727214
 C         1.972690        -1.408491         0.455009
 H         3.383126         1.368856         0.681119
 H         3.375378         1.452841        -0.999412
 H         2.126813         2.340117        -0.319248
 H        -0.073394         0.251869        -1.513394
 H         1.001179        -1.283745        -1.580908
 H        -0.489774        -1.972144         0.517309
 H        -0.240874         0.889791         1.156883
 H         2.386978        -1.104183         3.603947
 H         1.001472        -2.152092         2.857836
 H         2.398309        -2.045834        -0.319779
