19
Iteration:  3200
 C         2.818632         1.166228        -0.246467
 C         1.698043         0.149887         0.041605
 C         0.532515        -0.330508        -0.940240
 C         0.400416        -1.191660         0.366638
 C         0.590366         0.117032         1.208831
 O         1.013660        -0.087544         2.528109
 C         1.783119        -1.362698         2.741233
 O         2.614209        -1.712059         1.700251
 C         1.976979        -1.305913         0.416224
 H         3.539207         1.302037         0.610619
 H         3.346475         0.894123        -1.171725
 H         2.256726         2.031081        -0.366758
 H        -0.450949         0.223986        -0.857339
 H         0.610450        -0.947894        -1.782643
 H        -0.126017        -2.133483         0.520131
 H        -0.219521         0.929826         1.446797
 H         2.345462        -1.278470         3.704875
 H         0.944323        -2.137685         2.878815
 H         2.543027        -1.980472        -0.198617
