19
Iteration:    77
 C         2.691613         1.223499        -0.293268
 C         1.737593         0.039115         0.050478
 C         0.554510        -0.540313        -0.819690
 C         0.337364        -1.186811         0.500800
 C         0.612240         0.208004         1.265503
 O         1.164567        -0.010217         2.526562
 C         1.614036        -1.398895         2.545193
 O         2.662851        -1.637591         1.700437
 C         2.068099        -1.328969         0.441539
 H         3.326047         1.492747         0.542320
 H         3.284170         1.001852        -1.154840
 H         2.062037         2.054383        -0.563716
 H        -0.080968         0.282031        -1.137548
 H         0.722501        -1.247119        -1.640510
 H        -0.346564        -1.958296         0.632493
 H        -0.172539         0.971086         1.362094
 H         1.862073        -1.536754         3.558717
 H         0.696806        -1.855399         2.311559
 H         2.467967        -2.009153        -0.328969
