19
Iteration:  3150
 C         2.824331         1.075599        -0.174156
 C         1.669520         0.106812         0.048669
 C         0.525249        -0.343339        -0.877061
 C         0.334594        -1.258253         0.289531
 C         0.588452         0.066533         1.242911
 O         1.049879        -0.049990         2.597408
 C         1.721049        -1.310046         2.704639
 O         2.702575        -1.534279         1.607348
 C         1.922302        -1.364888         0.393248
 H         3.230324         0.948920         0.836608
 H         3.553178         0.685197        -0.898393
 H         2.433738         2.173869        -0.326959
 H        -0.075653         0.487171        -1.106152
 H         1.094743        -0.871141        -1.716221
 H        -0.436975        -2.018923         0.411152
 H        -0.157296         0.768026         1.327959
 H         2.295259        -1.260706         3.627781
 H         0.953350        -2.177459         2.833602
 H         2.477778        -2.033218        -0.306669
