19
Iteration:  1483
 C         2.707993         1.162117        -0.194019
 C         1.736219         0.048470         0.080304
 C         0.555286        -0.429766        -0.902099
 C         0.324620        -1.162682         0.479555
 C         0.672262         0.108360         1.165564
 O         0.991862        -0.087390         2.582420
 C         1.821073        -1.368432         2.694219
 O         2.697814        -1.584897         1.637117
 C         1.915161        -1.344583         0.336891
 H         2.951406         1.738993         0.681907
 H         3.618069         1.128255        -0.749617
 H         2.007378         1.911274        -0.744339
 H        -0.170075         0.365010        -1.135884
 H         0.904959        -1.000859        -1.861622
 H        -0.412711        -1.995149         0.707957
 H        -0.001886         0.950376         1.151504
 H         2.347048        -1.178399         3.598726
 H         1.129522        -2.200376         2.726840
 H         2.238184        -2.109624        -0.316265
