19
Iteration:  1828charge 0 multiplicity 1
 C         2.866256         1.050407        -0.231792
 C         1.649898         0.138848         0.147404
 C         0.504728        -0.315945        -0.802423
 C         0.412442        -1.324666         0.302654
 C         0.463912        -0.004927         1.256755
 O         1.153090        -0.051257         2.576482
 C         1.724370        -1.321230         2.664699
 O         2.654047        -1.486419         1.660770
 C         1.954628        -1.336371         0.407893
 H         3.648129         1.520721         0.420142
 H         3.356282         0.764276        -1.170231
 H         2.532512         1.978047        -0.613485
 H        -0.382119         0.401314        -1.043704
 H         0.729666        -0.794812        -1.807149
 H        -0.208096        -2.119847         0.018242
 H        -0.550948         0.487966         1.217055
 H         2.165516        -1.408412         3.598913
 H         0.894049        -2.051863         2.674753
 H         2.425837        -1.786871        -0.526729
