19
Iteration:  1817charge 0 multiplicity 1
 C         2.862207         1.082111        -0.290186
 C         1.689072         0.216312         0.077311
 C         0.483719        -0.319418        -0.809466
 C         0.431877        -1.369999         0.298585
 C         0.566011        -0.009534         1.339627
 O         1.030869        -0.052876         2.558981
 C         1.713171        -1.300965         2.705076
 O         2.649994        -1.556634         1.641716
 C         1.962728        -1.264281         0.381408
 H         3.574861         1.040395         0.581025
 H         3.302673         0.452776        -1.056070
 H         2.475400         2.007858        -0.590179
 H        -0.428472         0.363655        -0.689628
 H         0.709799        -0.655985        -1.853608
 H        -0.093046        -2.290905         0.253743
 H        -0.362060         0.632208         1.372262
 H         2.260912        -1.307494         3.596879
 H         0.922042        -2.073994         2.572012
 H         2.673622        -1.802673        -0.327937
