19
Iteration:  3047charge 0 multiplicity 1
 C         2.738544         1.245250        -0.233411
 C         1.729933         0.173133         0.060180
 C         0.555856        -0.386492        -0.888735
 C         0.512726        -1.245627         0.429896
 C         0.580790         0.110461         1.198069
 O         1.116951        -0.023482         2.574155
 C         1.686775        -1.354371         2.754720
 O         2.520097        -1.742626         1.671655
 C         1.973661        -1.391815         0.314625
 H         3.380083         1.547454         0.627103
 H         3.476006         1.059937        -1.068991
 H         2.287344         2.147829        -0.559733
 H        -0.333544         0.227776        -1.230768
 H         0.847913        -0.967936        -1.695425
 H        -0.028769        -2.243970         0.381806
 H        -0.227740         0.913523         1.307693
 H         2.166917        -1.298931         3.769407
 H         0.722237        -1.972814         2.788855
 H         2.612596        -1.947271        -0.379009
