19
Iteration:  2072charge 0 multiplicity 1
 C         2.585041         1.218828         0.013603
 C         1.685854         0.039643         0.058384
 C         0.575522        -0.412174        -0.956818
 C         0.338869        -1.248314         0.349418
 C         0.662944         0.161326         1.211960
 O         1.269567         0.067778         2.480838
 C         1.758545        -1.351190         2.693381
 O         2.632763        -1.698207         1.665331
 C         1.900612        -1.448971         0.359628
 H         3.243886         1.393537         0.889739
 H         3.326108         1.252389        -0.859416
 H         1.720576         2.024598         0.023280
 H        -0.261882         0.340066        -1.155704
 H         0.995800        -0.929086        -1.938305
 H        -0.428669        -2.035722         0.614761
 H        -0.025206         1.018452         0.991561
 H         2.374198        -1.350599         3.702223
 H         0.816671        -1.989898         2.688120
 H         2.158705        -2.131189        -0.556338
