19
Iteration:    93charge 0 multiplicity 1
 C         2.687008         1.212260        -0.323937
 C         1.729651         0.142560         0.032248
 C         0.510967        -0.405976        -0.886530
 C         0.354312        -1.206938         0.421392
 C         0.695520         0.044876         1.167358
 O         1.100369        -0.039016         2.573715
 C         1.681225        -1.318101         2.801503
 O         2.609147        -1.680488         1.694191
 C         2.036403        -1.375916         0.411319
 H         3.360949         1.427370         0.541283
 H         3.328293         0.946109        -1.212756
 H         2.161916         2.173078        -0.597731
 H        -0.331170         0.262777        -1.160392
 H         0.842653        -0.977959        -1.779455
 H        -0.484908        -1.997492         0.711985
 H         0.004887         0.923930         1.106900
 H         2.365353        -1.236109         3.707255
 H         0.906981        -2.164335         2.759227
 H         2.589190        -1.943074        -0.343255
