19
Iteration:   177
 C         2.825937         1.124187         0.030508
 C         1.694916         0.055845         0.140821
 C         0.559162        -0.368346        -0.984209
 C         0.299463        -1.215398         0.236162
 C         0.577726        -0.004557         1.144447
 O         0.911513        -0.275105         2.596846
 C         2.217623        -0.684684         2.642171
 O         2.368767        -1.808196         1.645987
 C         1.877705        -1.524216         0.371121
 H         3.493423         1.078516         0.936713
 H         3.441137         0.863466        -0.764323
 H         2.433480         2.173769         0.034213
 H        -0.114685         0.458733        -1.090098
 H         0.827544        -0.997920        -1.914468
 H        -0.652355        -1.870594         0.304146
 H        -0.130563         0.886480         1.333411
 H         2.968321         0.133134         2.485097
 H         2.561660        -0.921569         3.692542
 H         2.470249        -2.071499        -0.381752
