19
Iteration:   288charge 0 multiplicity 1
 C         2.702398         1.070706        -0.107585
 C         1.670507         0.083694         0.085925
 C         0.631156        -0.345654        -0.913722
 C         0.337604        -1.273125         0.356265
 C         0.558370         0.023601         1.196978
 O         1.057059         0.014533         2.551546
 C         1.940238        -1.101687         2.741236
 O         2.527535        -1.724532         1.593428
 C         1.942719        -1.401499         0.401414
 H         3.317296         1.293416         0.785371
 H         3.353231         0.823843        -0.918804
 H         2.205049         1.993067        -0.505224
 H        -0.038126         0.456740        -1.233689
 H         0.976801        -0.810520        -1.892129
 H        -0.445726        -2.149282         0.263324
 H        -0.269279         0.805347         1.221800
 H         2.893337        -0.788741         3.303742
 H         1.422077        -1.857040         3.395329
 H         2.264912        -2.065761        -0.369713
