19
Iteration:  3268charge 0 multiplicity 1
 C         2.687053         1.355541        -0.125241
 C         1.740513         0.092023        -0.050039
 C         0.563240        -0.411951        -0.929802
 C         0.372601        -1.185720         0.419606
 C         0.693265         0.092535         1.222270
 O         1.132787         0.006135         2.456257
 C         1.745633        -1.384512         2.726612
 O         2.547782        -1.737086         1.666931
 C         1.937114        -1.477120         0.440025
 H         3.214611         1.440115         0.837448
 H         3.482415         1.468850        -0.770027
 H         2.129825         2.280416        -0.152732
 H        -0.214393         0.197502        -1.292932
 H         0.807126        -1.264790        -1.558196
 H        -0.373789        -1.956155         0.614296
 H        -0.066164         0.966437         1.125904
 H         2.401794        -1.165369         3.588830
 H         0.893524        -2.138131         3.017718
 H         2.400410        -2.090275        -0.334293
