19
Iteration:   887charge 0 multiplicity 1
 C         2.672969         1.150019        -0.205708
 C         1.693117         0.067741         0.073227
 C         0.590452        -0.379776        -0.921624
 C         0.411399        -1.235643         0.399298
 C         0.613882         0.082853         1.229025
 O         1.155626        -0.046871         2.487041
 C         1.774731        -1.317134         2.745096
 O         2.592537        -1.592301         1.653007
 C         1.869808        -1.348551         0.439967
 H         3.149205         1.503095         0.671398
 H         3.497614         0.823067        -0.900122
 H         2.237744         2.013266        -0.695952
 H        -0.322692         0.241809        -1.047761
 H         0.856115        -1.006648        -1.789507
 H        -0.316960        -2.133429         0.481563
 H        -0.046897         0.930398         1.238223
 H         2.432450        -1.251875         3.582966
 H         1.066181        -2.185579         2.872861
 H         2.396907        -1.922027        -0.270819
