19
Iteration:  1365charge 0 multiplicity 1
 C         2.703991         1.217863        -0.117922
 C         1.649779         0.112363         0.017100
 C         0.511694        -0.426621        -0.966466
 C         0.390882        -1.296974         0.474842
 C         0.596235         0.084366         1.153084
 O         1.073393         0.011990         2.606845
 C         1.774997        -1.230950         2.680076
 O         2.710666        -1.676156         1.618302
 C         1.974771        -1.433127         0.410543
 H         3.442690         0.962705         0.615068
 H         3.219920         1.172618        -1.089643
 H         2.289701         2.257090         0.131200
 H        -0.110902         0.404778        -1.298027
 H         0.700341        -0.937669        -1.934842
 H        -0.275707        -2.106003         0.593370
 H        -0.254975         0.814149         1.236705
 H         2.391689        -1.105259         3.567106
 H         0.871182        -1.963128         2.634760
 H         2.392011        -2.178785        -0.376405
