19
Iteration:   824
 C         2.762021         1.251799        -0.188518
 C         1.722634         0.091906        -0.024476
 C         0.588124        -0.404973        -0.924494
 C         0.271596        -1.227285         0.445953
 C         0.650992         0.001780         1.218272
 O         1.102760        -0.051496         2.529377
 C         1.791412        -1.248303         2.753656
 O         2.629441        -1.583935         1.591712
 C         1.862611        -1.463652         0.447027
 H         3.424452         1.108218         0.674729
 H         3.422503         1.135895        -1.115709
 H         2.318651         2.204633         0.050589
 H        -0.325685         0.153274        -1.205180
 H         0.830814        -1.083960        -1.677860
 H        -0.548821        -1.839857         0.599147
 H        -0.062582         0.821064         1.152564
 H         2.393455        -1.037882         3.667211
 H         1.147796        -2.111730         3.074625
 H         2.327985        -2.179649        -0.396671
