19
Iteration:  2610
 C         2.713466         1.298910        -0.030390
 C         1.741653         0.049059         0.061080
 C         0.605692        -0.470234        -0.894154
 C         0.346511        -1.208593         0.388115
 C         0.603494         0.103943         1.173680
 O         1.030864        -0.005641         2.489430
 C         1.856248        -1.242996         2.669510
 O         2.554160        -1.739881         1.597063
 C         1.954902        -1.434204         0.426451
 H         3.467063         1.079241         0.723343
 H         3.227545         1.227222        -1.005829
 H         2.196156         2.214462         0.192494
 H        -0.110751         0.381623        -1.148473
 H         0.901663        -0.985504        -1.760701
 H        -0.470161        -1.979547         0.605179
 H        -0.152223         0.946458         1.019799
 H         2.561337        -1.034590         3.413409
 H         1.134865        -1.991246         2.938361
 H         2.452845        -2.068023        -0.401804
