19
Iteration:  1237charge 0 multiplicity 1
 C         2.617908         1.170072        -0.133727
 C         1.684570         0.145789         0.087319
 C         0.574871        -0.355509        -0.795522
 C         0.489011        -1.304513         0.417013
 C         0.601024         0.015944         1.182555
 O         1.209563         0.014113         2.432453
 C         1.714473        -1.282387         2.676321
 O         2.583331        -1.610971         1.610254
 C         1.919134        -1.420368         0.404096
 H         3.331835         1.252772         0.704489
 H         3.144216         0.814672        -1.109076
 H         2.239425         2.153270        -0.372272
 H        -0.350026         0.290377        -0.992670
 H         1.078552        -0.859477        -1.623844
 H        -0.282879        -2.183140         0.607788
 H        -0.341417         0.623162         1.263683
 H         2.219931        -1.206684         3.687034
 H         0.906302        -1.987262         2.822934
 H         2.595948        -1.955758        -0.238759
