19
Iteration:  4938charge 0 multiplicity 1
 C         2.677682         1.236469        -0.158033
 C         1.697048         0.135108         0.106632
 C         0.604824        -0.446300        -0.994601
 C         0.476996        -1.324066         0.248255
 C         0.641479         0.085141         1.147932
 O         1.238449         0.192202         2.556379
 C         1.630693        -1.290424         2.887339
 O         2.434461        -1.785534         1.712466
 C         1.984835        -1.480420         0.387067
 H         3.600243         1.432196         0.364776
 H         3.029154         1.284409        -1.209737
 H         2.152096         2.197923        -0.143710
 H        -0.267212         0.152692        -1.257161
 H         1.336878        -0.841158        -1.931210
 H        -0.150525        -2.163868         0.433697
 H        -0.248928         0.740421         1.009175
 H         2.280788        -1.271782         3.762913
 H         0.749009        -1.949110         3.039094
 H         2.623586        -2.058013        -0.364440
