19
Iteration:   645
 C         2.671941         1.112265        -0.128345
 C         1.710390         0.042708         0.019688
 C         0.638900        -0.315628        -0.949992
 C         0.308669        -1.273762         0.375671
 C         0.560561         0.006076         1.172629
 O         1.140393        -0.026986         2.545304
 C         1.934796        -1.144553         2.767882
 O         2.554890        -1.629026         1.655319
 C         1.850691        -1.406504         0.374628
 H         3.441648         0.990799         0.689040
 H         3.154452         1.085054        -1.100338
 H         2.131217         2.101444        -0.102930
 H        -0.143462         0.417601        -1.126854
 H         0.946937        -0.990599        -1.859748
 H        -0.572074        -2.058607         0.655565
 H        -0.151542         0.846951         1.276253
 H         2.731222        -0.994331         3.538086
 H         1.231956        -2.015784         3.076067
 H         2.427775        -2.116175        -0.349022
