19
Iteration:  3883charge 0 multiplicity 1
 C         2.686176         1.165363        -0.264472
 C         1.725670         0.058145         0.126508
 C         0.605904        -0.299918        -0.887235
 C         0.435083        -1.305801         0.399014
 C         0.620118         0.091801         1.206158
 O         1.090374        -0.010522         2.510356
 C         1.680923        -1.298969         2.702359
 O         2.591691        -1.660928         1.674027
 C         2.002937        -1.399860         0.440277
 H         2.990679         1.542256         0.776930
 H         3.548144         0.800817        -0.873013
 H         2.166269         2.132585        -0.548952
 H        -0.042853         0.536268        -1.304738
 H         0.823494        -0.826980        -1.796095
 H        -0.297765        -2.152229         0.444413
 H        -0.219815         0.833897         0.893526
 H         2.057638        -1.177156         3.742577
 H         0.917366        -2.083188         2.889389
 H         2.501214        -1.977605        -0.347933
