19
Iteration:  4864charge 0 multiplicity 1
 C         2.847277         1.020749        -0.187250
 C         1.727337         0.125186         0.017980
 C         0.596571        -0.376565        -0.945970
 C         0.424374        -1.316361         0.338432
 C         0.547305         0.039530         1.182935
 O         1.041961        -0.044908         2.576096
 C         1.681325        -1.312505         2.778770
 O         2.596791        -1.407303         1.698987
 C         1.902490        -1.349399         0.390713
 H         3.319370         1.392896         0.706749
 H         3.724513         0.493683        -0.602813
 H         2.735871         1.912719        -0.823519
 H        -0.181017         0.306316        -1.180055
 H         0.715736        -0.949531        -1.820003
 H        -0.316977        -2.118654         0.443582
 H        -0.287473         0.781282         1.182726
 H         2.377099        -1.297065         3.640862
 H         0.986295        -2.197638         3.032430
 H         2.417517        -2.029017        -0.391904
