19
Iteration:  4838charge 0 multiplicity 1
 C         2.816074         1.041849        -0.246117
 C         1.695627         0.125794         0.086589
 C         0.582283        -0.344706        -0.888897
 C         0.377857        -1.283537         0.327241
 C         0.529329         0.045617         1.192785
 O         0.966507        -0.025612         2.509622
 C         1.724010        -1.259576         2.704675
 O         2.665936        -1.596226         1.766191
 C         2.003240        -1.331012         0.431044
 H         3.354140         1.442648         0.633600
 H         3.638097         0.540151        -0.748915
 H         2.598955         1.925528        -0.822864
 H        -0.237000         0.317982        -1.237475
 H         1.019828        -0.878894        -1.884392
 H        -0.475946        -1.932753         0.457524
 H        -0.276880         0.791334         1.135224
 H         2.353331        -1.153184         3.593946
 H         0.971644        -2.142126         3.006110
 H         2.624187        -1.874903        -0.334149
