19
Iteration:   528
 C         2.755418         1.281789        -0.319378
 C         1.794334         0.129288         0.085352
 C         0.562472        -0.437477        -0.917153
 C         0.289563        -1.287872         0.339765
 C         0.615529         0.139450         1.213997
 O         0.985691        -0.108204         2.659666
 C         1.898921        -1.212987         2.810656
 O         2.585730        -1.744287         1.627891
 C         1.876349        -1.378081         0.378465
 H         3.209976         1.709650         0.563218
 H         3.606185         0.971611        -0.969527
 H         2.242644         2.069894        -0.891933
 H         0.050023         0.479251        -1.267643
 H         0.892710        -1.081043        -1.713049
 H        -0.232926        -2.103504         0.635715
 H        -0.253159         0.817475         1.148856
 H         2.700454        -0.912476         3.448244
 H         1.295009        -2.101394         3.272306
 H         2.263432        -2.008507        -0.427921
