19
Iteration:  3675charge 0 multiplicity 1
 C         2.813989         0.990813        -0.252056
 C         1.578479         0.166190         0.074568
 C         0.635690        -0.327017        -0.859681
 C         0.404317        -1.248123         0.317445
 C         0.513582         0.016030         1.260838
 O         1.023000        -0.090012         2.579911
 C         1.695829        -1.250889         2.747449
 O         2.716444        -1.539219         1.607508
 C         1.958438        -1.334059         0.437089
 H         3.280422         1.414358         0.623709
 H         3.443600         0.336725        -0.820546
 H         2.549081         1.852275        -0.945245
 H        -0.177107         0.383060        -0.948424
 H         0.964064        -0.596090        -1.862112
 H        -0.314254        -2.084149         0.248654
 H        -0.253683         0.870517         1.314399
 H         2.320102        -1.268970         3.625251
 H         1.043283        -2.123731         2.788587
 H         2.542765        -1.851520        -0.232628
