19
Iteration:  1693charge 0 multiplicity 1
 C         2.640367         1.171324        -0.102750
 C         1.663685         0.098257         0.025756
 C         0.605401        -0.380114        -0.854609
 C         0.387103        -1.319628         0.385556
 C         0.627436         0.117922         1.179776
 O         1.183925        -0.004953         2.502895
 C         1.764088        -1.320931         2.696004
 O         2.628908        -1.659856         1.620667
 C         1.902438        -1.344852         0.420113
 H         2.961200         1.306327         0.909765
 H         3.472943         0.872871        -0.777323
 H         2.111887         1.974869        -0.556148
 H        -0.103712         0.438375        -1.130944
 H         0.816526        -0.942223        -1.786248
 H        -0.524814        -1.824274         0.635416
 H        -0.151417         0.904526         1.128545
 H         2.392673        -1.367739         3.646141
 H         0.921785        -2.116584         2.817905
 H         2.453150        -1.856538        -0.370131
