19
Iteration:  3273charge 0 multiplicity 1
 C         2.730273         1.373850        -0.115819
 C         1.707034         0.033071        -0.002052
 C         0.566575        -0.435669        -0.908277
 C         0.426724        -1.191340         0.418686
 C         0.647778         0.092469         1.174682
 O         1.135100         0.017379         2.508186
 C         1.747932        -1.384871         2.720385
 O         2.535523        -1.701048         1.658323
 C         1.892491        -1.482899         0.393066
 H         3.270627         1.553897         0.832402
 H         3.628839         1.388851        -0.867367
 H         2.127918         2.333262        -0.202230
 H        -0.180895         0.339976        -1.276469
 H         0.861808        -1.221338        -1.661637
 H        -0.344488        -1.995675         0.501313
 H        -0.086154         0.855031         1.244146
 H         2.474510        -1.115732         3.483930
 H         0.993775        -2.074892         2.974609
 H         2.332925        -2.167474        -0.369122
