19
Iteration:    10
 C         2.730163         1.190767        -0.119496
 C         1.689471         0.124311         0.133992
 C         0.609227        -0.272399        -0.907028
 C         0.368239        -1.297568         0.358110
 C         0.633989         0.002558         1.178129
 O         0.955561        -0.151683         2.511798
 C         2.081920        -0.931534         2.688460
 O         2.419430        -1.838848         1.686070
 C         1.880286        -1.482362         0.356341
 H         3.383709         1.226750         0.712739
 H         3.288235         0.750833        -0.982022
 H         2.383511         2.135030        -0.420259
 H        -0.162835         0.509880        -1.134935
 H         1.070664        -0.648258        -1.794913
 H        -0.321663        -2.042121         0.428882
 H        -0.239127         0.655230         1.124529
 H         2.889774        -0.107773         2.834255
 H         1.753613        -1.448061         3.642118
 H         2.454806        -2.186994        -0.341972
