19
Iteration:  3529
 C         2.752852         1.155565        -0.267719
 C         1.737100         0.066638         0.043566
 C         0.661373        -0.350096        -0.803114
 C         0.356089        -1.234379         0.324276
 C         0.610172         0.084338         1.207707
 O         1.050246        -0.061841         2.630594
 C         1.718229        -1.337754         2.721314
 O         2.620336        -1.527658         1.617002
 C         1.889328        -1.418487         0.402299
 H         3.421402         1.260263         0.616925
 H         3.290357         0.792919        -1.111610
 H         2.034574         2.009872        -0.321651
 H        -0.016905         0.473428        -1.055529
 H         0.886470        -0.952157        -1.710375
 H        -0.369891        -2.068662         0.295544
 H        -0.094147         0.908626         1.298378
 H         2.424695        -1.270141         3.567590
 H         1.017368        -2.196687         2.707079
 H         2.410098        -2.094172        -0.290193
