19
Iteration:  3202charge 0 multiplicity 1
 C         2.813333         1.183342        -0.252526
 C         1.696937         0.149548         0.059925
 C         0.536635        -0.329428        -0.932132
 C         0.419105        -1.207312         0.359897
 C         0.577234         0.119654         1.204308
 O         1.038404        -0.065466         2.538167
 C         1.744921        -1.376419         2.766411
 O         2.603801        -1.716034         1.672432
 C         1.985978        -1.318047         0.412660
 H         3.521459         1.259068         0.599477
 H         3.255453         0.836037        -1.112073
 H         2.225861         2.044739        -0.358122
 H        -0.366125         0.218473        -0.921612
 H         0.585593        -0.933939        -1.826310
 H        -0.100448        -2.135954         0.557637
 H        -0.226159         0.906584         1.394535
 H         2.396473        -1.269587         3.651660
 H         0.984972        -2.083205         2.889346
 H         2.593466        -1.975943        -0.174527
