19
Iteration:  3769
 C         2.651644         1.280598        -0.129496
 C         1.632481         0.190221         0.051804
 C         0.624143        -0.411158        -0.990835
 C         0.466787        -1.362105         0.358519
 C         0.649071         0.078416         1.164032
 O         1.206894         0.106728         2.499265
 C         1.722384        -1.266085         2.778632
 O         2.502740        -1.846819         1.768862
 C         1.933590        -1.380147         0.356608
 H         3.482003         1.199154         0.554331
 H         3.116893         1.322571        -1.118025
 H         2.337085         2.307805         0.073729
 H        -0.304744         0.114082        -1.197234
 H         0.986955        -0.900924        -1.957698
 H        -0.266531        -2.175294         0.295829
 H        -0.164246         0.734822         1.149614
 H         2.414248        -1.241175         3.614250
 H         0.956823        -1.937074         3.090905
 H         2.362374        -2.123516        -0.369927
