19
Iteration:  2411
 C         2.703575         1.351535        -0.004687
 C         1.698450         0.057473         0.077969
 C         0.594092        -0.447385        -0.880585
 C         0.449683        -1.232724         0.404676
 C         0.611068         0.062335         1.152411
 O         1.221897         0.044395         2.482679
 C         1.724645        -1.180666         2.690313
 O         2.528271        -1.792267         1.568853
 C         1.914602        -1.454960         0.387710
 H         3.306615         1.247174         0.859202
 H         3.034439         1.321417        -1.077613
 H         1.944650         2.188413         0.103568
 H        -0.224469         0.162982        -1.193584
 H         1.038859        -1.071795        -1.635095
 H        -0.333619        -2.042831         0.661204
 H        -0.351403         0.671349         1.030635
 H         2.392080        -1.297544         3.621586
 H         0.927427        -1.952936         2.838089
 H         2.352022        -2.110504        -0.476655
