19
Iteration:  2319
 C         2.819659         1.184417        -0.242540
 C         1.744964         0.173637        -0.035725
 C         0.479092        -0.404156        -0.849716
 C         0.371084        -1.240505         0.419703
 C         0.620096         0.054677         1.220822
 O         1.027209        -0.130893         2.571159
 C         1.740501        -1.409067         2.695079
 O         2.623371        -1.500188         1.673214
 C         1.971471        -1.324768         0.416118
 H         3.152868         1.283035         0.842608
 H         3.586014         0.779741        -0.888530
 H         2.588636         2.148820        -0.704281
 H        -0.305149         0.369760        -1.063813
 H         0.789104        -0.882067        -1.829803
 H        -0.262153        -1.995820         0.750873
 H        -0.193559         0.777292         1.118131
 H         2.231575        -1.583853         3.624185
 H         1.036673        -2.238777         2.568460
 H         2.438630        -1.949975        -0.315820
