19
Iteration:  1661charge 0 multiplicity 1
 C         2.843569         1.232057        -0.270900
 C         1.721390         0.130048        -0.000745
 C         0.549639        -0.379364        -0.922351
 C         0.280749        -1.229975         0.393524
 C         0.570232         0.063712         1.210276
 O         0.987591        -0.160187         2.634153
 C         1.872390        -1.358983         2.777216
 O         2.685413        -1.571198         1.623940
 C         1.863397        -1.373489         0.409795
 H         3.295089         1.548571         0.658683
 H         3.576145         0.883641        -1.065848
 H         2.326182         2.102898        -0.589436
 H        -0.073243         0.478363        -1.385351
 H         0.834495        -1.174450        -1.682022
 H        -0.555623        -1.812712         0.566265
 H        -0.093819         0.922766         1.397379
 H         2.526724        -1.038180         3.637334
 H         1.086183        -2.161250         3.031418
 H         2.326753        -2.042404        -0.363360
