19
Iteration:  2398
 C         2.660148         1.277834        -0.051464
 C         1.726233         0.165298         0.063766
 C         0.529514        -0.416493        -0.893058
 C         0.442752        -1.387348         0.394139
 C         0.652266         0.066814         1.200200
 O         1.160844         0.097633         2.477951
 C         1.731023        -1.255129         2.721490
 O         2.478098        -1.852285         1.633478
 C         2.018624        -1.375089         0.331389
 H         3.555165         1.350040         0.546324
 H         3.210567         1.375025        -0.969753
 H         2.173692         2.275659         0.074899
 H        -0.254223         0.291062        -1.056069
 H         0.744305        -0.908178        -1.904429
 H        -0.136483        -2.274826         0.544604
 H        -0.107883         0.908143         1.223457
 H         2.416365        -1.056438         3.538748
 H         0.868406        -1.876772         2.991976
 H         2.614281        -1.910395        -0.478178
