19
Iteration:  3840charge 0 multiplicity 1
 C         2.807306         1.035446        -0.161637
 C         1.686033         0.128183        -0.025467
 C         0.616435        -0.429434        -0.892569
 C         0.287095        -1.193671         0.376734
 C         0.574706         0.044159         1.258587
 O         1.010516        -0.078202         2.546443
 C         1.770094        -1.339318         2.718587
 O         2.609234        -1.452341         1.676399
 C         1.983029        -1.349694         0.392309
 H         3.393355         1.453035         0.717571
 H         3.624429         0.658519        -0.842328
 H         2.660330         2.007135        -0.725440
 H        -0.190604         0.315684        -1.261134
 H         0.900776        -1.008286        -1.732846
 H        -0.385565        -2.051259         0.577914
 H        -0.168450         0.964544         1.263720
 H         2.361131        -1.550467         3.639887
 H         1.094603        -2.226544         2.754669
 H         2.526177        -1.798916        -0.458298
