19
Iteration:  4187
 C         2.831542         0.995987        -0.190453
 C         1.713697         0.095206         0.091465
 C         0.696366        -0.399893        -0.903573
 C         0.271016        -1.187460         0.362471
 C         0.525408        -0.005632         1.174567
 O         0.999949        -0.046884         2.525264
 C         1.672553        -1.294962         2.716233
 O         2.658825        -1.442581         1.668159
 C         1.969245        -1.360282         0.442759
 H         3.547798         1.219323         0.649574
 H         3.404451         0.621840        -1.019043
 H         2.447993         2.022563        -0.391923
 H        -0.042961         0.346489        -1.131300
 H         1.116013        -0.964357        -1.748205
 H        -0.432473        -1.972227         0.489876
 H        -0.132582         0.838977         1.109933
 H         2.209234        -1.226704         3.615142
 H         1.044455        -2.193033         2.778092
 H         2.569494        -1.953438        -0.272291
