19
Iteration:  1501charge 0 multiplicity 1
 C         2.739768         1.282885        -0.223654
 C         1.698028         0.178099         0.031618
 C         0.567890        -0.397584        -0.828916
 C         0.386481        -1.241110         0.438789
 C         0.598088         0.045592         1.198462
 O         1.088212        -0.118548         2.527327
 C         1.784948        -1.248314         2.721153
 O         2.565971        -1.641715         1.585850
 C         1.949552        -1.449404         0.448454
 H         3.071482         1.634014         0.792942
 H         3.533945         0.707329        -0.705006
 H         2.593761         2.131312        -0.837912
 H        -0.340682         0.172289        -1.091079
 H         0.846269        -0.954620        -1.677672
 H        -0.356709        -2.112220         0.530268
 H        -0.227119         0.770326         1.237514
 H         2.565891        -1.086187         3.485246
 H         1.138014        -2.193629         2.912955
 H         2.444084        -1.929656        -0.395098
