19
Iteration:  2600
 C         2.641625         1.193509        -0.014240
 C         1.719965         0.108768         0.085613
 C         0.615622        -0.395819        -0.993363
 C         0.428994        -1.257867         0.343559
 C         0.562614         0.113605         1.149147
 O         1.135783         0.054279         2.528528
 C         1.816508        -1.242641         2.714062
 O         2.536961        -1.763750         1.622758
 C         1.946335        -1.437343         0.396917
 H         3.514424         1.095823         0.702204
 H         3.008932         1.325137        -1.043796
 H         2.128405         2.120845         0.202824
 H        -0.160302         0.353099        -1.289851
 H         0.883049        -1.010891        -1.785419
 H        -0.342135        -2.086034         0.513978
 H        -0.260426         0.776086         1.381249
 H         2.529120        -1.080148         3.470967
 H         1.109814        -1.985852         3.051465
 H         2.481082        -2.127294        -0.314611
