19
Iteration:  1739
 C         2.650398         1.280229        -0.113085
 C         1.656980         0.104527         0.032786
 C         0.527910        -0.396569        -0.883530
 C         0.436268        -1.316911         0.395788
 C         0.644091         0.058637         1.167723
 O         1.261016         0.046828         2.485197
 C         1.721340        -1.269464         2.721080
 O         2.492035        -1.793970         1.663181
 C         1.988633        -1.347933         0.389734
 H         3.250774         1.097360         0.806924
 H         3.239970         1.248388        -1.056233
 H         2.086899         2.155812        -0.110737
 H        -0.333346         0.338980        -1.130768
 H         0.941865        -0.720933        -1.870081
 H        -0.018976        -2.270583         0.401752
 H        -0.101203         0.915150         1.204219
 H         2.380339        -1.269404         3.607597
 H         0.804047        -1.932797         3.060710
 H         2.630493        -1.944333        -0.321398
