19
Iteration:  3299
 C         2.713996         1.095406        -0.150225
 C         1.612969         0.087260         0.121587
 C         0.583274        -0.290228        -0.878761
 C         0.374985        -1.279930         0.317440
 C         0.620750         0.011158         1.227226
 O         1.100480         0.015929         2.521499
 C         1.757185        -1.266923         2.711008
 O         2.618054        -1.668478         1.617619
 C         1.972211        -1.354918         0.397349
 H         3.285115         1.345269         0.808670
 H         3.472801         0.720547        -0.806391
 H         2.386558         2.043540        -0.509918
 H        -0.257651         0.351466        -1.195995
 H         0.969331        -0.874144        -1.688078
 H        -0.388945        -2.037488         0.405448
 H        -0.141957         0.828027         1.284287
 H         2.421026        -1.105665         3.546412
 H         0.984570        -2.062069         2.850589
 H         2.581721        -1.774353        -0.374656
