19
Iteration:  1835
 C         2.816048         1.101613        -0.226154
 C         1.613848         0.105968         0.165987
 C         0.549657        -0.294763        -0.865280
 C         0.396386        -1.302658         0.338800
 C         0.465195        -0.017745         1.189276
 O         1.170526        -0.038856         2.584395
 C         1.724216        -1.348717         2.675879
 O         2.650668        -1.482905         1.639886
 C         1.964159        -1.352316         0.392282
 H         3.568999         1.305465         0.615618
 H         3.466145         0.655816        -1.085319
 H         2.368732         2.054864        -0.627727
 H        -0.288315         0.397977        -1.063277
 H         0.932035        -0.824838        -1.724600
 H        -0.459252        -2.085877         0.468608
 H        -0.358297         0.725441         1.306299
 H         2.259270        -1.406096         3.684531
 H         0.985247        -2.159271         2.636311
 H         2.469894        -1.988362        -0.350180
