19
Iteration:  2184charge 0 multiplicity 1
 C         2.793015         1.131716        -0.202980
 C         1.629998         0.208810        -0.010562
 C         0.477680        -0.360868        -0.941562
 C         0.470277        -1.250898         0.418173
 C         0.628847         0.051546         1.221126
 O         1.096068        -0.097976         2.557557
 C         1.695774        -1.403823         2.721553
 O         2.627302        -1.586992         1.681645
 C         1.971483        -1.257861         0.391331
 H         3.469276         1.041432         0.661499
 H         3.327506         0.819018        -1.155244
 H         2.358427         2.142122        -0.325969
 H        -0.417112         0.324729        -1.229377
 H         0.904177        -0.997400        -1.725490
 H        -0.173297        -2.157592         0.675902
 H        -0.188989         0.744153         1.350550
 H         2.109715        -1.372263         3.711692
 H         0.915115        -2.115860         2.790226
 H         2.553232        -1.870366        -0.252042
