19
Iteration:  3711
 C         2.735846         1.243188        -0.251311
 C         1.760569         0.133264        -0.065081
 C         0.592453        -0.417832        -0.907587
 C         0.436107        -1.273713         0.478691
 C         0.672410         0.093699         1.201355
 O         1.070137        -0.082082         2.607416
 C         1.631684        -1.287311         2.733263
 O         2.569521        -1.634118         1.656493
 C         2.004610        -1.399042         0.404589
 H         3.222880         1.329689         0.767945
 H         3.583252         1.021722        -0.944125
 H         2.239469         2.157047        -0.421060
 H        -0.352130         0.255989        -1.038554
 H         0.709364        -1.052563        -1.773409
 H        -0.428503        -1.917592         0.510374
 H        -0.180554         0.820823         1.165421
 H         2.275309        -1.173096         3.619448
 H         0.844665        -2.038293         2.744427
 H         2.287795        -2.035785        -0.483240
