19
Iteration:  2009
 C         2.799274         1.097386        -0.308100
 C         1.601807         0.234983         0.075741
 C         0.569392        -0.335843        -0.829834
 C         0.446453        -1.245089         0.320032
 C         0.549627         0.011503         1.299331
 O         1.022370        -0.110807         2.591797
 C         1.752054        -1.297121         2.742807
 O         2.610407        -1.678475         1.630791
 C         2.010634        -1.251956         0.333547
 H         3.480859         1.203643         0.539608
 H         3.313149         0.602073        -1.164896
 H         2.618818         2.106392        -0.613871
 H        -0.297475         0.331693        -0.969504
 H         0.961217        -0.718125        -1.768766
 H        -0.416603        -1.979162         0.466541
 H        -0.263101         0.713455         1.494785
 H         2.420424        -1.188393         3.615689
 H         1.129651        -2.148713         3.051126
 H         2.608298        -1.843972        -0.319497
