19
Iteration:  2483charge 0 multiplicity 1
 C         2.898277         1.111387        -0.296412
 C         1.688689         0.156574         0.186606
 C         0.493307        -0.314650        -0.815255
 C         0.468444        -1.285335         0.366329
 C         0.576441         0.031854         1.255833
 O         0.938382        -0.087478         2.582007
 C         1.717394        -1.279449         2.708397
 O         2.626264        -1.633685         1.569420
 C         2.013607        -1.251002         0.348555
 H         3.374624         1.475304         0.680681
 H         3.531848         0.483243        -0.883985
 H         2.376221         1.814004        -0.926225
 H        -0.430985         0.271419        -0.844924
 H         0.837807        -0.771198        -1.842058
 H        -0.095013        -2.159666         0.568730
 H        -0.282751         0.711959         1.176003
 H         2.355089        -1.227321         3.574361
 H         1.038183        -2.151959         2.909209
 H         2.419353        -1.918100        -0.387243
