19
Iteration:  3471
 C         2.802675         1.115411        -0.128074
 C         1.702368         0.157896         0.097042
 C         0.517079        -0.406418        -0.891574
 C         0.361252        -1.271867         0.352558
 C         0.622987         0.075070         1.213286
 O         1.055330        -0.030500         2.612607
 C         1.748655        -1.263943         2.661821
 O         2.624592        -1.585017         1.586849
 C         1.920287        -1.422808         0.357532
 H         3.300961         1.467765         0.817151
 H         3.568770         0.874212        -0.916094
 H         2.523409         2.004657        -0.638266
 H        -0.304718         0.328786        -1.103239
 H         0.928209        -0.889682        -1.716529
 H        -0.315088        -2.031256         0.673477
 H        -0.134246         0.785929         1.136825
 H         2.329450        -1.330561         3.567383
 H         1.032414        -2.054135         2.797452
 H         2.520472        -2.088157        -0.266128
