19
Iteration:  2769
 C         2.742523         1.259695        -0.098633
 C         1.613369         0.197229         0.014109
 C         0.596292        -0.420223        -0.907502
 C         0.410767        -1.359856         0.301490
 C         0.613458         0.072684         1.174256
 O         1.232382        -0.013577         2.507397
 C         1.715625        -1.268568         2.779133
 O         2.502505        -1.723137         1.668327
 C         1.924881        -1.368231         0.376746
 H         3.379370         0.985649         0.754922
 H         3.495793         1.558836        -0.862947
 H         2.469990         2.315803         0.223739
 H        -0.277599         0.108215        -1.106769
 H         0.880142        -0.860746        -1.884172
 H        -0.139580        -2.237105         0.490206
 H        -0.343878         0.774960         1.120550
 H         2.492065        -1.203317         3.534436
 H         0.927992        -1.947504         3.042881
 H         2.388601        -2.045246        -0.310114
