19
Iteration:  3015
 C         2.779032         1.080294        -0.219694
 C         1.690306         0.135947         0.079569
 C         0.547032        -0.283737        -0.897645
 C         0.395381        -1.235802         0.354196
 C         0.538266         0.044899         1.198427
 O         1.055522        -0.101445         2.547792
 C         1.714784        -1.336033         2.717668
 O         2.687424        -1.502108         1.734246
 C         1.967712        -1.415537         0.385897
 H         3.537297         1.371847         0.552467
 H         3.349433         0.546521        -1.021699
 H         2.411192         2.042261        -0.522526
 H        -0.288530         0.431877        -1.126955
 H         0.877349        -0.786051        -1.771767
 H        -0.433853        -2.007666         0.435298
 H        -0.209384         0.866325         1.169269
 H         2.211518        -1.468632         3.731221
 H         0.997774        -2.291914         2.590178
 H         2.506322        -1.906628        -0.467953
