19
Iteration:  1155
 C         2.705987         1.119207        -0.204574
 C         1.610701         0.204651         0.035161
 C         0.456452        -0.366931        -0.916547
 C         0.419230        -1.248625         0.290166
 C         0.629897        -0.061326         1.329118
 O         1.089369        -0.002292         2.542574
 C         1.773875        -1.219503         2.806352
 O         2.624827        -1.665974         1.684190
 C         2.031512        -1.374491         0.342350
 H         3.669176         0.908923         0.338119
 H         2.900601         0.751085        -1.177387
 H         2.565144         2.202563        -0.338941
 H        -0.331444         0.342890        -1.081258
 H         0.796170        -0.686472        -1.912534
 H        -0.209074        -2.052622         0.279109
 H        -0.231444         0.633737         1.306022
 H         2.457039        -1.021892         3.615618
 H         1.097730        -2.002433         2.991008
 H         2.759491        -2.000762        -0.332807
