19
Iteration:  4681charge 0 multiplicity 1
 C         2.889614         1.049792        -0.234375
 C         1.660452         0.173736        -0.040366
 C         0.600987        -0.414466        -0.916035
 C         0.437191        -1.232717         0.376950
 C         0.540871        -0.018992         1.152995
 O         0.972751        -0.038549         2.595388
 C         1.691077        -1.265876         2.761010
 O         2.605587        -1.506004         1.691024
 C         2.000546        -1.321237         0.416022
 H         3.186844         1.164887         0.782939
 H         3.656880         0.445883        -0.704265
 H         2.737064         1.953773        -0.772763
 H        -0.259220         0.309590        -1.071908
 H         0.784048        -0.963197        -1.802789
 H        -0.255066        -2.132024         0.549541
 H        -0.210242         0.772242         1.166333
 H         2.144657        -1.288335         3.790068
 H         1.073794        -2.122235         2.904573
 H         2.470350        -2.043340        -0.125570
