19
Iteration:   617
 C         2.758944         1.200451        -0.100398
 C         1.657509         0.155784         0.019390
 C         0.489185        -0.508848        -0.894114
 C         0.323731        -1.279129         0.419608
 C         0.613110         0.127731         1.126630
 O         1.144472         0.002341         2.519575
 C         1.816493        -1.240354         2.661748
 O         2.662676        -1.650938         1.658956
 C         1.902294        -1.416516         0.407414
 H         3.428855         0.879331         0.655719
 H         3.280583         1.161171        -1.108038
 H         2.416771         2.195581         0.130845
 H        -0.422026         0.090086        -1.124394
 H         0.903162        -1.111414        -1.639954
 H        -0.447604        -1.893315         0.688205
 H        -0.139853         0.914041         1.263476
 H         2.322094        -1.253610         3.631940
 H         0.978212        -2.009665         2.696275
 H         2.468846        -2.044220        -0.244010
