19
Iteration:  1715charge 0 multiplicity 1
 C         2.787603         1.355487        -0.082472
 C         1.658079         0.215125         0.072932
 C         0.384224        -0.475711        -0.894050
 C         0.511896        -1.289312         0.337579
 C         0.654509        -0.056739         1.220123
 O         1.262803         0.036083         2.454172
 C         1.669974        -1.215656         2.695522
 O         2.526631        -1.757594         1.684486
 C         1.978979        -1.420758         0.350987
 H         3.184695         1.277459         0.911652
 H         3.489151         0.978197        -0.877289
 H         2.351338         2.260242        -0.389811
 H        -0.536031         0.171692        -0.849120
 H         0.491673        -0.863917        -1.927949
 H        -0.254201        -2.114795         0.479040
 H        -0.190201         0.654099         1.285330
 H         2.294645        -1.280573         3.658468
 H         0.714505        -1.831221         2.936322
 H         2.523697        -2.039435        -0.362706
