19
Iteration:  3874charge 0 multiplicity 1
 C         2.792219         1.183256        -0.234425
 C         1.693865         0.107637         0.072671
 C         0.532699        -0.392104        -0.864341
 C         0.400113        -1.231183         0.403376
 C         0.595949         0.045334         1.182796
 O         0.994383         0.008055         2.531382
 C         1.698604        -1.308814         2.724629
 O         2.634973        -1.678733         1.680907
 C         2.055566        -1.385250         0.385306
 H         3.237475         1.493683         0.764454
 H         3.624446         0.725282        -0.844679
 H         2.314581         2.002157        -0.792214
 H        -0.219373         0.466428        -0.929677
 H         0.769129        -0.918386        -1.735710
 H        -0.297598        -2.058868         0.423844
 H        -0.170498         0.900909         1.211808
 H         2.305070        -1.321561         3.633086
 H         0.805393        -1.909587         2.623903
 H         2.766987        -1.860361        -0.294932
