19
Iteration:  4777
 C         2.661071         1.253386        -0.170293
 C         1.733045         0.055687         0.070473
 C         0.686345        -0.393620        -0.961040
 C         0.423527        -1.306476         0.379782
 C         0.587551         0.048911         1.108844
 O         1.236015         0.077897         2.452071
 C         1.590134        -1.194481         2.675455
 O         2.555750        -1.772819         1.786124
 C         1.992648        -1.411636         0.520264
 H         3.470455         1.217489         0.569040
 H         3.050245         1.368403        -1.222171
 H         1.911450         2.064924         0.068965
 H        -0.273943         0.214180        -1.168326
 H         1.102135        -0.856087        -1.839516
 H        -0.390658        -2.070807         0.505857
 H        -0.295345         0.752607         1.085734
 H         2.128781        -1.237550         3.708667
 H         0.693413        -1.816697         2.801925
 H         2.289475        -2.123890        -0.307082
