19
Iteration:   316
 C         2.831749         1.152602        -0.036603
 C         1.597662         0.188269        -0.039975
 C         0.427469        -0.480586        -0.930718
 C         0.368877        -1.354535         0.402406
 C         0.607087         0.103762         1.102119
 O         1.202936         0.015420         2.490920
 C         1.794945        -1.259153         2.743345
 O         2.610831        -1.630679         1.641929
 C         1.908462        -1.355867         0.447960
 H         3.207964         1.233002         1.009222
 H         3.665611         0.757019        -0.664084
 H         2.577034         2.151785        -0.435833
 H        -0.420741         0.218789        -0.998456
 H         0.776574        -0.843155        -1.915811
 H        -0.260867        -2.173257         0.476732
 H        -0.228210         0.801043         1.202150
 H         2.411203        -1.159769         3.612853
 H         0.994594        -1.896347         3.121702
 H         2.258864        -2.158515        -0.308315
