19
Iteration:  1914charge 0 multiplicity 1
 C         2.587374         1.216538        -0.083497
 C         1.586483         0.063434         0.128875
 C         0.618414        -0.336156        -1.011830
 C         0.423964        -1.293424         0.282037
 C         0.601207        -0.010164         1.197846
 O         1.312611         0.083580         2.509476
 C         1.803339        -1.219310         2.770366
 O         2.479215        -1.816195         1.660864
 C         1.963496        -1.333867         0.408812
 H         3.349976         1.285273         0.807597
 H         3.136075         0.840896        -1.032770
 H         2.048324         2.143171        -0.193459
 H        -0.161895         0.493765        -1.032750
 H         1.019812        -0.580952        -2.003678
 H        -0.337548        -2.052537         0.367897
 H        -0.363643         0.523907         1.347902
 H         2.526062        -1.175315         3.562177
 H         0.973259        -1.913011         3.002043
 H         2.567583        -1.874721        -0.368448
