19
Iteration:   465charge 0 multiplicity 1
 C         2.719974         1.150927         0.000202
 C         1.619478         0.106458        -0.001621
 C         0.524700        -0.540058        -0.881760
 C         0.390283        -1.243577         0.506707
 C         0.642810         0.108274         1.137238
 O         1.179334         0.042033         2.532895
 C         1.750980        -1.235585         2.633763
 O         2.618998        -1.565230         1.559167
 C         1.936053        -1.438253         0.347203
 H         3.158321         0.939841         0.943094
 H         3.525769         0.806715        -0.727228
 H         2.516934         2.206056         0.040402
 H        -0.242462         0.203432        -1.252395
 H         0.810088        -1.182881        -1.671005
 H        -0.406661        -2.050469         0.769692
 H        -0.210968         0.815893         1.241229
 H         2.258690        -1.215407         3.600730
 H         0.942265        -1.935949         2.564083
 H         2.302764        -2.089536        -0.394935
