19
Iteration:   111
 C         2.722240         1.185520        -0.326014
 C         1.691215         0.171862         0.018112
 C         0.628187        -0.310780        -0.903573
 C         0.428647        -1.280782         0.299787
 C         0.589525         0.047788         1.262392
 O         1.074475        -0.085945         2.534265
 C         1.862815        -1.224646         2.832780
 O         2.495643        -1.650839         1.712765
 C         1.881116        -1.479098         0.439913
 H         3.424335         1.399167         0.501510
 H         3.303312         0.931299        -1.159517
 H         2.219215         2.154757        -0.513081
 H        -0.140391         0.446899        -0.935084
 H         0.842265        -0.725086        -1.925517
 H        -0.158735        -2.226595         0.403530
 H        -0.259821         0.764015         1.134486
 H         2.716297        -0.966353         3.521443
 H         1.390086        -2.087146         3.268712
 H         2.325528        -2.206131        -0.232571
