19
Iteration:  2190charge 0 multiplicity 1
 C         2.801518         1.171592        -0.222357
 C         1.633843         0.233815         0.034024
 C         0.486309        -0.384113        -0.899511
 C         0.480415        -1.295817         0.384844
 C         0.595761         0.053594         1.238679
 O         1.137648        -0.085695         2.539082
 C         1.688455        -1.342385         2.697352
 O         2.604651        -1.596664         1.676939
 C         1.973031        -1.297624         0.406298
 H         3.453622         0.977926         0.631900
 H         3.345103         0.756544        -1.034075
 H         2.320130         2.160583        -0.159544
 H        -0.291876         0.265518        -1.098933
 H         0.859924        -0.945861        -1.792422
 H        -0.135651        -2.154520         0.444625
 H        -0.262452         0.763434         1.288934
 H         2.118597        -1.416359         3.729033
 H         0.840440        -2.146084         2.759328
 H         2.401970        -1.988202        -0.402571
