19
Iteration:  3889
 C         2.614881         1.169329        -0.208535
 C         1.751022         0.082254         0.082645
 C         0.665342        -0.295080        -0.897297
 C         0.431313        -1.325887         0.358313
 C         0.634276         0.086849         1.188722
 O         1.143652        -0.019220         2.506963
 C         1.651353        -1.283324         2.716608
 O         2.566844        -1.649792         1.703095
 C         1.943069        -1.404219         0.448234
 H         3.161368         1.515593         0.656163
 H         3.427400         0.974636        -0.897580
 H         2.114839         2.011896        -0.690138
 H        -0.063285         0.457942        -1.150720
 H         1.081323        -0.841336        -1.824581
 H        -0.315111        -2.095969         0.587358
 H        -0.161903         0.772192         1.091426
 H         2.246506        -1.162341         3.638417
 H         0.990299        -2.183452         2.816175
 H         2.292798        -2.087509        -0.353804
