19
Iteration:   888
 C         2.669752         1.150547        -0.207588
 C         1.690771         0.064612         0.065420
 C         0.594037        -0.387417        -0.921590
 C         0.403380        -1.234059         0.399216
 C         0.620178         0.091281         1.227188
 O         1.150668        -0.052988         2.495520
 C         1.773856        -1.311351         2.750344
 O         2.591180        -1.596415         1.653290
 C         1.875219        -1.346058         0.431098
 H         3.131826         1.520146         0.670640
 H         3.505740         0.828857        -0.899457
 H         2.225896         2.007376        -0.675441
 H        -0.324009         0.221312        -1.046719
 H         0.858156        -0.994456        -1.764062
 H        -0.325633        -2.083207         0.472222
 H        -0.008896         0.953433         1.236802
 H         2.437016        -1.285807         3.586735
 H         1.095353        -2.174811         2.893813
 H         2.444500        -1.914261        -0.289703
