19
Iteration:  2297
 C         2.740970         1.144803        -0.160813
 C         1.697616         0.136474         0.130891
 C         0.494999        -0.295270        -0.894662
 C         0.421229        -1.323705         0.285121
 C         0.580496        -0.022901         1.259340
 O         1.140806        -0.031696         2.532796
 C         1.680394        -1.276190         2.743566
 O         2.634946        -1.593417         1.658283
 C         1.979461        -1.384674         0.353526
 H         3.311049         1.593324         0.705316
 H         3.468023         0.728919        -0.864696
 H         2.489102         1.961470        -0.826682
 H        -0.376907         0.414590        -1.012023
 H         0.841686        -0.653868        -1.912579
 H        -0.235121        -2.154495         0.434573
 H        -0.243836         0.719274         1.270415
 H         2.239943        -1.287231         3.674469
 H         0.959568        -2.117849         2.824339
 H         2.429911        -1.927001        -0.456094
