19
Iteration:  1162charge 0 multiplicity 1
 C         2.727025         1.148419        -0.229368
 C         1.575289         0.124071         0.150058
 C         0.522516        -0.333632        -0.910752
 C         0.384258        -1.239246         0.293505
 C         0.560686        -0.073441         1.224625
 O         1.096903        -0.004594         2.577051
 C         1.798682        -1.209870         2.791372
 O         2.666064        -1.626364         1.654978
 C         2.008653        -1.410258         0.349401
 H         3.681912         0.821460         0.269063
 H         3.005031         0.865283        -1.309207
 H         2.587901         2.211934        -0.244866
 H        -0.233205         0.535625        -1.025510
 H         0.836465        -0.895477        -1.785574
 H        -0.375123        -2.111833         0.306947
 H        -0.263405         0.597122         1.240680
 H         2.524888        -0.955718         3.657584
 H         0.981687        -2.010264         2.962188
 H         2.555376        -2.015991        -0.310806
