19
Iteration:  2232charge 0 multiplicity 1
 C         2.572465         1.270775        -0.059632
 C         1.724604         0.045788        -0.014838
 C         0.634810        -0.398038        -0.941557
 C         0.401847        -1.183152         0.338224
 C         0.646552         0.100941         1.160018
 O         1.161687        -0.040763         2.502179
 C         1.785415        -1.248018         2.764115
 O         2.554680        -1.741306         1.636469
 C         1.927357        -1.454377         0.402315
 H         3.275998         1.115450         0.815325
 H         3.223597         1.455528        -0.973333
 H         1.962098         2.208227         0.087506
 H        -0.183768         0.333929        -1.006815
 H         0.910251        -0.959785        -1.841746
 H        -0.305561        -1.985163         0.459990
 H        -0.051443         0.954580         1.285458
 H         2.403810        -1.028466         3.669104
 H         1.065186        -1.957498         3.258302
 H         2.359501        -2.219798        -0.270370
