19
Iteration:  1755charge 0 multiplicity 1
 C         2.570422         1.215666        -0.125395
 C         1.694027         0.083276         0.089621
 C         0.688077        -0.367559        -0.939082
 C         0.354892        -1.187728         0.337019
 C         0.637926         0.077961         1.204037
 O         1.196967        -0.011218         2.511063
 C         1.772012        -1.286767         2.743484
 O         2.596149        -1.721654         1.638594
 C         1.926507        -1.460433         0.411527
 H         3.367869         1.463067         0.540620
 H         2.998913         1.166977        -1.122999
 H         2.007130         2.241637        -0.097497
 H        -0.066147         0.309693        -1.203954
 H         0.942003        -1.077992        -1.712560
 H        -0.589634        -1.724286         0.631718
 H        -0.206734         0.754245         1.282438
 H         2.316063        -1.144450         3.687749
 H         0.995360        -2.032437         2.811716
 H         2.262684        -2.111324        -0.373244
