19
Iteration:  2518charge 0 multiplicity 1
 C         2.728982         1.189504        -0.282857
 C         1.791639         0.109362         0.055456
 C         0.613643        -0.363173        -0.949139
 C         0.327035        -1.167145         0.366995
 C         0.608870         0.071607         1.278572
 O         1.091644        -0.169824         2.548088
 C         1.727770        -1.430480         2.795195
 O         2.645606        -1.514435         1.670649
 C         1.864179        -1.359717         0.445475
 H         3.366543         1.713415         0.524348
 H         3.584901         0.968687        -0.984554
 H         2.167517         2.093404        -0.694294
 H        -0.255261         0.214002        -1.311906
 H         1.049462        -0.915313        -1.956158
 H        -0.348718        -1.946799         0.617199
 H        -0.136243         0.958329         1.219127
 H         2.256875        -1.360249         3.814673
 H         0.982030        -2.206873         2.622522
 H         2.029649        -2.153687        -0.366294
