19
Iteration:  2990charge 0 multiplicity 1
 C         2.837808         1.136659        -0.199380
 C         1.739257         0.126487         0.011067
 C         0.567248        -0.408468        -0.890282
 C         0.325581        -1.190920         0.427192
 C         0.608246         0.096308         1.166616
 O         0.899459        -0.175055         2.566665
 C         1.814684        -1.278522         2.700281
 O         2.649897        -1.522017         1.621708
 C         1.944438        -1.389923         0.459509
 H         3.440919         1.092769         0.688977
 H         3.617713         0.848177        -0.987923
 H         2.523569         2.189014        -0.196292
 H        -0.149854         0.421859        -1.111001
 H         0.866938        -0.962105        -1.773806
 H        -0.473469        -1.931743         0.644911
 H        -0.255931         0.914470         1.156951
 H         2.413266        -1.273507         3.615516
 H         1.206921        -2.294527         2.736849
 H         2.402183        -1.932579        -0.394136
