19
Iteration:  3468charge 0 multiplicity 1
 C         2.757190         1.110570        -0.104514
 C         1.704574         0.156764         0.079559
 C         0.527905        -0.386139        -0.867382
 C         0.363456        -1.253299         0.327023
 C         0.650345         0.092535         1.193088
 O         1.074110        -0.050267         2.612241
 C         1.747028        -1.244088         2.688771
 O         2.623471        -1.585849         1.572701
 C         1.935308        -1.457870         0.387213
 H         3.280305         1.464447         0.741376
 H         3.508064         0.870040        -0.892675
 H         2.483012         2.053832        -0.629051
 H        -0.279992         0.269223        -1.195009
 H         0.915674        -0.960396        -1.768175
 H        -0.436515        -1.987517         0.654498
 H        -0.243836         0.798619         1.099447
 H         2.300256        -1.335689         3.627666
 H         1.009806        -2.036606         2.759732
 H         2.507402        -2.160036        -0.305931
