19
Iteration:  1780
 C         2.741441         1.262850        -0.269901
 C         1.745986         0.078566         0.030907
 C         0.621436        -0.432542        -0.897851
 C         0.294530        -1.193286         0.357663
 C         0.642363         0.102263         1.272014
 O         1.019023        -0.163826         2.563301
 C         1.826346        -1.345733         2.715519
 O         2.638409        -1.605036         1.650866
 C         1.866333        -1.354876         0.435726
 H         3.462481         1.401217         0.559455
 H         3.354496         1.316837        -1.231634
 H         2.298672         2.285242        -0.224220
 H        -0.145271         0.279872        -1.220606
 H         0.869180        -1.099083        -1.732597
 H        -0.514803        -1.949928         0.601933
 H         0.114566         1.094351         1.307122
 H         2.340597        -1.136515         3.702767
 H         1.167486        -2.143899         2.859066
 H         2.106942        -2.142002        -0.282190
