19
Iteration:  1079charge 0 multiplicity 1
 C         2.719244         1.275953        -0.209427
 C         1.709649         0.167590         0.050708
 C         0.533249        -0.394939        -0.854430
 C         0.377725        -1.263208         0.434254
 C         0.641125        -0.025237         1.208748
 O         1.236046        -0.040472         2.472623
 C         1.735843        -1.264401         2.727934
 O         2.539451        -1.661611         1.664112
 C         1.915776        -1.430778         0.396383
 H         2.971058         1.823478         0.741717
 H         3.552286         1.153702        -0.862736
 H         2.097444         2.052234        -0.721912
 H        -0.328352         0.168499        -1.123537
 H         0.871910        -1.011420        -1.711596
 H        -0.379142        -1.960287         0.556701
 H        -0.175017         0.753090         1.200075
 H         2.352382        -1.324230         3.627883
 H         0.961982        -2.057978         2.874587
 H         2.516716        -2.128272        -0.324814
