19
Iteration:   822charge 0 multiplicity 1
 C         2.750759         1.247265        -0.195346
 C         1.730889         0.087004        -0.005114
 C         0.583762        -0.405733        -0.917596
 C         0.248817        -1.211405         0.405949
 C         0.657619         0.004656         1.230748
 O         1.094859        -0.045095         2.528664
 C         1.784132        -1.232105         2.752565
 O         2.664551        -1.606568         1.595094
 C         1.862641        -1.454522         0.459833
 H         3.399047         1.127976         0.619964
 H         3.386375         1.144069        -1.126040
 H         2.304004         2.185871         0.071626
 H        -0.294077         0.202426        -1.206078
 H         0.833970        -1.150313        -1.658357
 H        -0.626829        -1.901440         0.516342
 H        -0.037857         0.804322         1.174011
 H         2.388376        -1.079922         3.595956
 H         1.201066        -2.125454         3.052196
 H         2.309260        -2.183698        -0.301648
