19
Iteration:  3088charge 0 multiplicity 1
 C         2.581722         1.285137        -0.103881
 C         1.763435         0.054457         0.099416
 C         0.635321        -0.385259        -0.994887
 C         0.368097        -1.175753         0.300976
 C         0.724174         0.087444         1.200330
 O         1.236526         0.026108         2.515919
 C         1.711897        -1.328475         2.739687
 O         2.515016        -1.721302         1.677775
 C         1.902586        -1.496008         0.443092
 H         3.175850         1.637944         0.726795
 H         3.278184         1.220229        -1.023096
 H         1.767624         2.063255        -0.110762
 H        -0.029652         0.417501        -1.487949
 H         1.010144        -0.973176        -1.878190
 H        -0.357914        -1.935736         0.695641
 H        -0.260213         0.754864         1.153337
 H         2.407052        -1.318358         3.579340
 H         0.930437        -2.035746         2.866383
 H         2.249146        -2.192006        -0.341839
