19
Iteration:  4415charge 0 multiplicity 1
 C         2.727184         1.221622        -0.191023
 C         1.717239         0.050617         0.029066
 C         0.684596        -0.457779        -0.923125
 C         0.387150        -1.308375         0.312950
 C         0.508428         0.053161         1.166144
 O         1.170096         0.120771         2.445126
 C         1.632254        -1.281230         2.732798
 O         2.509923        -1.753445         1.786410
 C         2.062827        -1.346067         0.476877
 H         3.230624         1.537596         0.709753
 H         3.390812         1.164282        -0.962125
 H         2.066460         2.064867        -0.271890
 H         0.132207         0.387620        -1.173308
 H         1.044577        -1.052280        -1.770316
 H        -0.386563        -2.066913         0.500768
 H        -0.164465         0.956171         1.193031
 H         2.247117        -1.183698         3.625171
 H         0.674742        -1.906686         2.880715
 H         2.683800        -1.948660        -0.187093
