19
Iteration:  4978charge 0 multiplicity 1
 C         2.753900         1.272621        -0.201852
 C         1.761652         0.095566         0.059594
 C         0.623303        -0.443255        -1.013739
 C         0.362794        -1.231662         0.367944
 C         0.663916         0.145332         1.113677
 O         1.064352        -0.009102         2.499445
 C         1.684844        -1.286550         2.793375
 O         2.611797        -1.716859         1.762394
 C         1.937650        -1.438780         0.448857
 H         3.569570         1.250140         0.588893
 H         3.185803         1.109263        -1.206337
 H         2.066705         2.132066        -0.121891
 H        -0.228413         0.168313        -1.305597
 H         0.940066        -1.043486        -1.759152
 H        -0.556653        -1.813265         0.645746
 H        -0.091174         0.931218         1.148952
 H         2.237705        -1.294529         3.723457
 H         0.736190        -1.959912         2.949386
 H         2.306114        -2.207375        -0.172786
