19
Iteration:   919
 C         2.710731         1.384446        -0.291456
 C         1.789050         0.062832         0.015626
 C         0.585492        -0.444449        -0.931559
 C         0.344801        -1.145724         0.460345
 C         0.596836         0.079110         1.236841
 O         1.020212        -0.054585         2.571163
 C         1.811655        -1.284950         2.757755
 O         2.646341        -1.761303         1.630593
 C         1.930401        -1.451664         0.439129
 H         3.245563         1.715336         0.571504
 H         3.495009         1.114296        -1.062116
 H         2.068616         2.246592        -0.611025
 H        -0.240456         0.258160        -1.244179
 H         0.718333        -1.251287        -1.765172
 H        -0.497528        -1.987968         0.684231
 H        -0.021690         0.962660         1.154218
 H         2.458057        -1.168219         3.602570
 H         1.040753        -2.145231         3.026335
 H         2.279099        -2.073188        -0.327907
