19
Iteration:  3637
 C         2.775131         1.213050        -0.143052
 C         1.756725         0.126062        -0.016994
 C         0.530340        -0.454554        -0.863065
 C         0.366452        -1.229049         0.370403
 C         0.645313         0.109703         1.169469
 O         1.011121        -0.108393         2.499654
 C         1.771171        -1.272320         2.798137
 O         2.604299        -1.586732         1.605667
 C         1.947102        -1.417118         0.434277
 H         3.283548         1.174481         0.894756
 H         3.651403         0.887955        -0.825900
 H         2.543886         2.236831        -0.549211
 H        -0.346495         0.243037        -0.974724
 H         0.875142        -0.945248        -1.762080
 H        -0.372100        -2.001998         0.653279
 H         0.026725         0.967329         1.169797
 H         2.293199        -1.001851         3.765296
 H         1.087830        -2.205746         2.906028
 H         2.037008        -2.125040        -0.462701
