19
Iteration:  3966
 C         2.752519         1.130287        -0.143970
 C         1.686552         0.027918         0.042029
 C         0.623193        -0.350906        -0.989005
 C         0.402266        -1.340415         0.316289
 C         0.581814         0.010486         1.206529
 O         1.101113         0.036284         2.540415
 C         1.701813        -1.252280         2.826794
 O         2.613988        -1.583615         1.702152
 C         1.920108        -1.360732         0.394033
 H         3.520607         1.080249         0.622796
 H         3.307570         1.273943        -1.108057
 H         2.185101         2.091767         0.073219
 H        -0.194213         0.308047        -0.993400
 H         0.888127        -0.759394        -2.100990
 H        -0.324647        -2.234495         0.177873
 H        -0.146081         0.869809         1.114383
 H         2.251728        -1.117608         3.829373
 H         1.032162        -2.023322         2.509556
 H         2.454753        -2.085966        -0.339174
