19
Iteration:  4386charge 0 multiplicity 1
 C         2.825373         1.095069        -0.208366
 C         1.705936         0.136866         0.021019
 C         0.652901        -0.424467        -0.898814
 C         0.507549        -1.275301         0.313538
 C         0.583253         0.106644         1.125405
 O         0.945293        -0.045523         2.540905
 C         1.656196        -1.244874         2.815914
 O         2.538267        -1.569532         1.698568
 C         1.991225        -1.447848         0.443814
 H         3.474673         1.295970         0.683454
 H         3.520927         0.836634        -1.138383
 H         2.355336         2.121163        -0.436685
 H        -0.304677         0.286150        -1.059079
 H         1.001036        -0.782713        -1.844485
 H        -0.319271        -2.004218         0.601987
 H        -0.032840         0.977362         1.207330
 H         2.473577        -0.836866         3.476509
 H         1.014444        -2.072992         3.078934
 H         2.438537        -2.316352        -0.255990
