19
Iteration:  2501
 C         2.761230         1.105583        -0.327416
 C         1.643723         0.207209         0.019849
 C         0.572547        -0.294758        -0.907779
 C         0.361419        -1.207966         0.357709
 C         0.590040         0.048817         1.209455
 O         1.031085        -0.173314         2.614021
 C         1.763290        -1.388121         2.736574
 O         2.655208        -1.561058         1.720375
 C         1.974811        -1.347621         0.431595
 H         3.209093         1.523948         0.588134
 H         3.469052         0.491701        -0.919954
 H         2.607320         1.989588        -0.933763
 H        -0.118003         0.549059        -1.110688
 H         0.895876        -0.782713        -1.723757
 H        -0.520260        -1.951160         0.381223
 H        -0.148035         0.784622         1.389407
 H         2.311685        -1.265303         3.647766
 H         1.053236        -2.256933         2.857742
 H         2.686760        -1.794508        -0.266760
