19
Iteration:  4261charge 0 multiplicity 1
 C         2.592684         1.361784        -0.152681
 C         1.778456         0.065864         0.081476
 C         0.773360        -0.508323        -1.017101
 C         0.352437        -1.314842         0.251384
 C         0.652597         0.140715         1.194146
 O         1.230769         0.129552         2.506931
 C         1.729379        -1.251271         2.815628
 O         2.481995        -1.818783         1.752033
 C         1.857735        -1.462633         0.450945
 H         3.176051         1.727867         0.700783
 H         3.293082         1.197538        -0.919176
 H         1.917430         2.186794        -0.485307
 H         0.056150         0.168903        -1.298242
 H         1.398003        -1.035701        -1.859109
 H        -0.592068        -1.860992         0.134617
 H        -0.189407         0.926006         1.159930
 H         2.052144        -1.487022         3.832207
 H         0.821099        -1.811065         2.806843
 H         2.264841        -2.346094        -0.202825
