19
Iteration:  3384charge 0 multiplicity 1
 C         2.726549         1.287235        -0.194861
 C         1.713880         0.132586         0.104952
 C         0.584313        -0.409224        -0.905003
 C         0.287956        -1.216775         0.259159
 C         0.602771         0.039109         1.212391
 O         1.221263        -0.037518         2.480577
 C         1.684352        -1.332476         2.787314
 O         2.592083        -1.702685         1.716561
 C         1.998604        -1.378803         0.410023
 H         3.636757         1.266778         0.530044
 H         2.997701         0.944871        -1.253432
 H         2.164336         2.202427        -0.145578
 H        -0.326861         0.309301        -0.908802
 H         0.752861        -0.966781        -1.806109
 H        -0.442816        -1.954770         0.524077
 H        -0.062446         0.870421         1.143583
 H         2.284073        -1.240116         3.699620
 H         0.793461        -2.076609         2.863822
 H         2.450760        -1.956875        -0.394057
