19
Iteration:  2441charge 0 multiplicity 1
 C         2.652262         1.170833        -0.029380
 C         1.686580         0.071927         0.045527
 C         0.502746        -0.404277        -1.015539
 C         0.284299        -1.198706         0.308290
 C         0.657245         0.141778         1.184258
 O         1.201617        -0.086163         2.501648
 C         1.777225        -1.314739         2.764438
 O         2.677481        -1.619096         1.697746
 C         1.897498        -1.383664         0.431548
 H         3.275996         1.191978         0.897038
 H         3.457758         1.106923        -0.792871
 H         2.004741         2.041441        -0.313890
 H        -0.152680         0.347950        -1.447675
 H         0.975244        -1.030836        -1.932552
 H        -0.325352        -2.026941         0.487760
 H        -0.032400         1.019756         1.078021
 H         2.334848        -1.271182         3.717809
 H         1.063392        -2.124507         2.823419
 H         2.277630        -1.951856        -0.480440
