19
Iteration:  2459
 C         2.816308         1.209625        -0.145203
 C         1.671692         0.116681         0.031100
 C         0.561547        -0.359957        -0.865964
 C         0.381444        -1.269880         0.389773
 C         0.588524         0.025719         1.213163
 O         1.056314        -0.050723         2.555401
 C         1.780709        -1.290594         2.707527
 O         2.586166        -1.598633         1.598584
 C         1.979054        -1.392413         0.365459
 H         3.232101         1.313240         0.890597
 H         3.492289         0.725075        -0.818139
 H         2.470318         2.124097        -0.570062
 H        -0.324687         0.304374        -0.923048
 H         0.749875        -0.897760        -1.770679
 H        -0.489159        -1.933469         0.536606
 H        -0.251463         0.690521         1.208864
 H         2.401216        -1.269719         3.565874
 H         1.008567        -2.112398         2.854770
 H         2.515924        -2.004648        -0.297337
