19
Iteration:  3813charge 0 multiplicity 1
 C         2.762218         1.113949        -0.140773
 C         1.695953         0.099299         0.068742
 C         0.613756        -0.343477        -0.887392
 C         0.347863        -1.244070         0.355334
 C         0.564712         0.096984         1.175460
 O         0.995544        -0.062786         2.503626
 C         1.759903        -1.229036         2.744601
 O         2.719354        -1.568287         1.630419
 C         1.896047        -1.513440         0.466651
 H         3.452357         1.334122         0.621877
 H         3.362513         0.836768        -1.016373
 H         2.387487         2.115687        -0.338282
 H        -0.144274         0.339411        -1.171309
 H         1.007776        -0.746733        -1.899274
 H        -0.340811        -2.070940         0.598825
 H        -0.114832         0.877810         1.131633
 H         2.308497        -1.216558         3.700887
 H         1.085800        -2.089090         2.737085
 H         2.305209        -2.028676        -0.405059
