19
Iteration:  4226
 C         2.721455         1.182756        -0.182125
 C         1.764880         0.066537         0.019103
 C         0.585803        -0.447472        -0.892851
 C         0.441476        -1.209439         0.403348
 C         0.696761         0.060820         1.134555
 O         1.058086         0.004734         2.470315
 C         1.639818        -1.283286         2.805322
 O         2.449027        -1.720050         1.719441
 C         2.122347        -1.286607         0.410370
 H         3.148301         1.379246         0.778786
 H         3.537638         0.796243        -0.844747
 H         2.216529         2.057613        -0.631220
 H        -0.219881         0.295874        -1.113631
 H         0.789513        -0.881876        -1.936443
 H        -0.385657        -1.996063         0.569804
 H        -0.206800         0.759411         1.082743
 H         2.360140        -1.166777         3.718588
 H         0.749948        -1.889754         2.816610
 H         2.661079        -1.893426        -0.353115
