19
Iteration:  4116charge 0 multiplicity 1
 C         2.616553         1.217769        -0.167799
 C         1.679505         0.085323         0.097420
 C         0.696091        -0.340197        -0.946605
 C         0.449837        -1.330222         0.302617
 C         0.611460         0.080746         1.097962
 O         1.145684         0.075128         2.476599
 C         1.653892        -1.230223         2.835271
 O         2.588484        -1.744663         1.740056
 C         1.967873        -1.448168         0.421727
 H         3.342565         1.203097         0.619935
 H         3.262921         0.962903        -1.058552
 H         2.287675         2.247078        -0.097513
 H        -0.211173         0.270246        -1.290218
 H         1.203127        -0.939011        -1.729247
 H        -0.591726        -1.741479         0.448591
 H        -0.216195         0.862849         1.001133
 H         2.357918        -1.354962         3.774290
 H         0.770546        -1.949066         2.921867
 H         2.384013        -2.252529        -0.249108
