19
Iteration:  2669charge 0 multiplicity 1
 C         2.837144         1.080773        -0.227062
 C         1.634490         0.156528         0.192656
 C         0.516949        -0.309237        -0.849784
 C         0.471613        -1.281062         0.350892
 C         0.550322         0.044363         1.259624
 O         1.054698        -0.095634         2.569606
 C         1.637806        -1.295025         2.689535
 O         2.671876        -1.537556         1.591617
 C         1.967383        -1.372932         0.391916
 H         3.633185         1.534381         0.523398
 H         3.494748         0.558113        -0.942220
 H         2.660090         1.947581        -0.951298
 H        -0.266665         0.294652        -1.174289
 H         1.033239        -0.726634        -1.775393
 H        -0.193360        -2.116498         0.532397
 H        -0.496708         0.718519         1.196658
 H         2.158918        -1.362064         3.699831
 H         0.945680        -2.125254         2.604821
 H         2.450149        -1.852158        -0.485035
