19
Iteration:  3762
 C         2.623464         1.277203        -0.165156
 C         1.648798         0.186542         0.074217
 C         0.650138        -0.411372        -0.932437
 C         0.422290        -1.299657         0.341477
 C         0.612631         0.044149         1.174645
 O         1.241756         0.091579         2.438300
 C         1.741251        -1.289282         2.746423
 O         2.499931        -1.815823         1.764195
 C         1.963114        -1.442222         0.436843
 H         3.430054         1.202604         0.594287
 H         3.113661         1.335763        -1.127044
 H         2.155440         2.289219         0.203622
 H        -0.123596         0.276850        -1.255699
 H         1.066682        -0.827551        -1.859389
 H        -0.264780        -2.173029         0.346812
 H        -0.262593         0.754718         1.062634
 H         2.430047        -1.219328         3.592634
 H         0.742321        -1.833427         2.946676
 H         2.344245        -1.989759        -0.360683
