19
Iteration:   897charge 0 multiplicity 1
 C         2.667454         1.180239        -0.222631
 C         1.677677         0.120920        -0.005977
 C         0.579601        -0.459695        -0.878444
 C         0.311534        -1.210883         0.383669
 C         0.692264         0.135308         1.183015
 O         1.099561        -0.090047         2.611898
 C         1.791693        -1.278519         2.774232
 O         2.588336        -1.643629         1.643765
 C         2.007733        -1.391176         0.366291
 H         3.031646         1.524831         0.721804
 H         3.517743         0.889285        -0.882155
 H         2.067869         2.003706        -0.642930
 H        -0.215550         0.263463        -1.228314
 H         0.980561        -1.005163        -1.796103
 H        -0.641608        -1.897908         0.568992
 H         0.056222         1.017915         1.208434
 H         2.421286        -1.208239         3.649722
 H         0.970047        -2.068493         2.994321
 H         2.507414        -1.921018        -0.389953
