19
Iteration:  2944
 C         2.699038         1.160120        -0.055196
 C         1.672905         0.177132         0.112915
 C         0.587009        -0.315156        -0.911870
 C         0.370597        -1.307481         0.342666
 C         0.524244         0.016662         1.117665
 O         1.162769         0.045990         2.454861
 C         1.721840        -1.240838         2.724772
 O         2.618653        -1.750205         1.673313
 C         2.018984        -1.441727         0.406681
 H         3.525549         1.266344         0.614964
 H         3.181230         0.937909        -0.988958
 H         2.286978         2.228356        -0.059070
 H        -0.257217         0.314824        -1.022878
 H         0.926114        -0.795233        -1.906303
 H        -0.476578        -1.918357         0.433184
 H        -0.329316         0.797705         1.139858
 H         2.361475        -1.016933         3.564853
 H         0.967545        -2.088703         3.116364
 H         2.614167        -2.029393        -0.302696
