19
Iteration:  1224charge 0 multiplicity 1
 C         2.727931         1.228508        -0.140986
 C         1.633675         0.090619         0.022815
 C         0.496513        -0.456622        -0.912793
 C         0.380212        -1.305153         0.391594
 C         0.601729         0.050981         1.218892
 O         1.181685        -0.010087         2.506591
 C         1.733175        -1.291324         2.695988
 O         2.635887        -1.602289         1.690990
 C         2.009271        -1.348153         0.396863
 H         3.376571         1.135028         0.710260
 H         3.367291         1.160206        -1.063488
 H         2.263117         2.246028        -0.040464
 H        -0.273031         0.316058        -1.020279
 H         0.523994        -0.978466        -1.887107
 H        -0.288845        -2.214670         0.536270
 H        -0.163105         0.899120         1.151461
 H         2.310876        -1.309597         3.609916
 H         0.936596        -2.013363         2.711648
 H         2.316987        -2.050036        -0.442973
