19
Iteration:  2176charge 0 multiplicity 1
 C         2.746052         1.099838        -0.209791
 C         1.655537         0.141843        -0.029111
 C         0.525520        -0.365137        -0.938490
 C         0.378712        -1.184589         0.437389
 C         0.654036         0.069924         1.210424
 O         1.032100        -0.128191         2.594120
 C         1.707446        -1.435767         2.760588
 O         2.650613        -1.560914         1.680941
 C         2.007250        -1.257353         0.375141
 H         3.463914         1.245246         0.658451
 H         3.338136         0.993116        -1.205288
 H         2.658489         2.165132        -0.511529
 H        -0.425667         0.225141        -1.266935
 H         0.824458        -0.900230        -1.821671
 H        -0.313944        -1.936565         0.899243
 H        -0.192595         0.822089         1.183741
 H         2.433578        -1.352580         3.632109
 H         0.940078        -2.311860         2.614177
 H         2.687838        -1.731664        -0.357826
