19
Iteration:  4377charge 0 multiplicity 1
 C         2.856182         1.096857        -0.226334
 C         1.775071         0.065297        -0.013289
 C         0.616834        -0.407892        -0.948714
 C         0.391478        -1.260377         0.375980
 C         0.597468         0.111157         1.192559
 O         0.868739        -0.076804         2.519314
 C         1.763433        -1.253880         2.800225
 O         2.554042        -1.540560         1.722418
 C         1.993631        -1.364216         0.443181
 H         3.458992         1.060390         0.702266
 H         3.589653         0.834377        -1.096580
 H         2.473037         2.119976        -0.472361
 H        -0.155059         0.387179        -1.262283
 H         0.923182        -1.010683        -1.824185
 H        -0.402235        -2.029616         0.502195
 H        -0.152131         0.880367         1.034118
 H         2.285747        -1.072413         3.775395
 H         1.134532        -2.138041         3.045755
 H         2.576833        -1.977617        -0.258826
