19
Iteration:  2592
 C         2.649054         1.169064        -0.036005
 C         1.623735         0.136247         0.059124
 C         0.640590        -0.354067        -0.994855
 C         0.413452        -1.293529         0.304274
 C         0.596832         0.028236         1.182166
 O         1.235424         0.040238         2.523040
 C         1.759940        -1.204521         2.804020
 O         2.545090        -1.766423         1.657800
 C         1.918810        -1.405275         0.354527
 H         3.552270         1.191000         0.682700
 H         3.001411         1.403914        -1.014449
 H         2.151918         2.127498         0.247621
 H        -0.211371         0.226542        -1.242195
 H         1.079744        -0.914761        -1.848419
 H        -0.283118        -2.120267         0.385798
 H        -0.242103         0.700763         1.028782
 H         2.465768        -1.079994         3.668549
 H         0.931232        -1.906016         3.120057
 H         2.275709        -1.910439        -0.507921
