19
Iteration:  2374
 C         2.684535         1.209963        -0.203291
 C         1.693075         0.188001         0.019970
 C         0.546944        -0.249221        -0.930615
 C         0.453197        -1.298595         0.305580
 C         0.576847        -0.000693         1.182344
 O         1.178833        -0.088476         2.512065
 C         1.737597        -1.275316         2.868543
 O         2.539740        -1.690809         1.701398
 C         1.973920        -1.421637         0.407184
 H         3.605341         1.266940         0.345533
 H         3.141178         1.152563        -1.146377
 H         2.316801         2.213039        -0.166703
 H        -0.342675         0.370085        -1.115853
 H         0.854079        -0.780280        -1.899524
 H        -0.220508        -2.062216         0.407657
 H        -0.282251         0.607961         1.409060
 H         2.309743        -1.151569         3.731712
 H         0.972731        -2.035696         3.020566
 H         2.591171        -1.929448        -0.302951
