19
Iteration:  3359charge 0 multiplicity 1
 C         2.752382         1.129856        -0.192740
 C         1.736246         0.072310         0.010245
 C         0.610118        -0.321477        -0.954268
 C         0.442273        -1.176479         0.458596
 C         0.634153         0.098639         1.224297
 O         0.996401        -0.103211         2.603836
 C         1.717240        -1.344183         2.682675
 O         2.667590        -1.551557         1.583706
 C         1.889650        -1.408967         0.477838
 H         3.375859         1.162024         0.680650
 H         3.290734         0.862238        -1.166282
 H         2.060655         2.035977        -0.238245
 H        -0.224223         0.396484        -1.011931
 H         0.859320        -0.966506        -1.825568
 H        -0.384136        -1.928782         0.681639
 H        -0.030889         0.926031         1.007541
 H         2.332009        -1.313475         3.614610
 H         0.932485        -2.225869         2.676055
 H         2.218547        -2.048268        -0.402249
