19
Iteration:  1120
 C         2.700708         1.294219        -0.200725
 C         1.748917         0.116045         0.026279
 C         0.569094        -0.449858        -0.862475
 C         0.340490        -1.247581         0.487377
 C         0.630254         0.071542         1.247093
 O         1.133584        -0.044542         2.512186
 C         1.755463        -1.294349         2.656802
 O         2.626328        -1.657831         1.650646
 C         1.941379        -1.407646         0.379984
 H         3.265817         1.630239         0.722065
 H         3.310755         0.920371        -1.015520
 H         2.140946         2.106674        -0.617824
 H        -0.347654         0.145983        -1.196221
 H         0.905790        -1.118803        -1.653355
 H        -0.520160        -1.902920         0.652166
 H        -0.165873         0.787708         1.237201
 H         2.279870        -1.221220         3.661867
 H         0.943402        -1.998840         2.751645
 H         2.235937        -2.082998        -0.463559
