19
Iteration:  1657
 C         2.840970         1.199103        -0.307567
 C         1.701080         0.154072        -0.004404
 C         0.549400        -0.392817        -0.932432
 C         0.315660        -1.193492         0.412047
 C         0.592880         0.045019         1.207546
 O         0.974375        -0.171252         2.626135
 C         1.871587        -1.353263         2.790026
 O         2.661895        -1.575884         1.638160
 C         1.871645        -1.356973         0.415790
 H         3.323297         1.455924         0.641580
 H         3.636060         0.957516        -0.984544
 H         2.400783         2.232637        -0.547100
 H        -0.141712         0.386875        -1.136028
 H         0.778903        -1.012992        -1.819393
 H        -0.599503        -1.929970         0.525123
 H        -0.121922         0.845849         1.332900
 H         2.538929        -1.072609         3.616167
 H         1.187722        -2.192048         3.024286
 H         2.330666        -1.924153        -0.358014
