19
Iteration:  1707charge 0 multiplicity 1
 C         2.727452         1.262605        -0.086190
 C         1.663552         0.138709         0.043645
 C         0.410170        -0.397571        -0.915681
 C         0.401651        -1.278846         0.402141
 C         0.624039         0.017738         1.176856
 O         1.248031         0.028582         2.469013
 C         1.708525        -1.276249         2.716360
 O         2.564594        -1.727065         1.670712
 C         2.028763        -1.401679         0.371796
 H         3.185822         1.528163         0.907835
 H         3.554401         0.992910        -0.776008
 H         2.380445         2.228063        -0.369901
 H        -0.540434         0.257393        -0.971505
 H         0.793841        -0.862185        -1.847169
 H        -0.010255        -2.215228         0.488538
 H        -0.224865         0.750222         1.275414
 H         2.252644        -1.181399         3.644073
 H         0.771438        -1.974770         2.777309
 H         2.504651        -2.108237        -0.380569
