19
Iteration:  4726
 C         2.784938         1.168543        -0.189507
 C         1.708603         0.048166        -0.020540
 C         0.628163        -0.398037        -0.942448
 C         0.362939        -1.223334         0.362545
 C         0.588626         0.070090         1.163274
 O         0.989683        -0.051591         2.457595
 C         1.733709        -1.268873         2.808366
 O         2.640549        -1.579281         1.761539
 C         1.957505        -1.404739         0.451326
 H         3.474758         1.000980         0.617765
 H         3.341267         0.945407        -1.096682
 H         2.372522         2.148230        -0.263648
 H        -0.034336         0.399981        -1.320334
 H         0.970017        -1.025852        -1.762455
 H        -0.492124        -1.932654         0.526648
 H        -0.219109         0.789364         1.096266
 H         2.275075        -1.130899         3.737854
 H         1.021443        -2.006649         3.109029
 H         2.466197        -1.977608        -0.252357
