19
Iteration:  2807
 C         2.747305         1.104335        -0.116408
 C         1.701306         0.068961         0.053213
 C         0.617445        -0.374672        -0.836237
 C         0.356137        -1.264768         0.396213
 C         0.566931         0.171667         1.200967
 O         0.982267        -0.085844         2.498972
 C         1.758889        -1.294691         2.639766
 O         2.732761        -1.558658         1.602707
 C         1.949111        -1.401712         0.438239
 H         3.302399         0.846169         0.786753
 H         3.237575         0.896360        -1.075802
 H         2.260267         2.058636        -0.050910
 H        -0.213642         0.440072        -1.024697
 H         1.016919        -0.722570        -1.813702
 H        -0.502370        -1.995426         0.603616
 H         0.017752         1.042004         1.309971
 H         2.145841        -1.130032         3.659628
 H         1.064426        -2.181487         2.591899
 H         2.303195        -2.033267        -0.431140
