19
Iteration:  4103charge 0 multiplicity 1
 C         2.696550         1.316398        -0.145980
 C         1.722589         0.152457        -0.012371
 C         0.700921        -0.480443        -0.972397
 C         0.344518        -1.234790         0.373393
 C         0.598819         0.046475         1.153375
 O         1.219949         0.022500         2.470794
 C         1.626403        -1.235943         2.789930
 O         2.545443        -1.743131         1.725830
 C         1.947208        -1.487164         0.492790
 H         3.316874         1.380494         0.756635
 H         3.305504         1.295753        -1.080084
 H         2.074899         2.178387        -0.302606
 H        -0.013658         0.347466        -1.423923
 H         1.098254        -1.061712        -1.768502
 H        -0.290592        -2.076128         0.463709
 H        -0.241857         0.727572         1.229998
 H         2.096102        -1.141511         3.767890
 H         0.764150        -2.019485         2.836603
 H         2.439595        -2.010689        -0.275150
