19
Iteration:  4987charge 0 multiplicity 1
 C         2.735838         1.197223        -0.186601
 C         1.741149         0.078400         0.009995
 C         0.635428        -0.477884        -0.999715
 C         0.370796        -1.212859         0.306677
 C         0.702923         0.141235         1.199043
 O         1.051648        -0.022810         2.572403
 C         1.710753        -1.280388         2.700983
 O         2.586024        -1.628990         1.768599
 C         1.868994        -1.436229         0.475144
 H         3.530903         1.277765         0.582100
 H         3.284359         1.100088        -1.116790
 H         2.312542         2.199385        -0.281306
 H        -0.197836         0.220772        -1.289020
 H         1.010593        -1.037530        -1.759246
 H        -0.437315        -1.987175         0.480652
 H         0.071739         1.026699         1.162257
 H         2.184299        -1.165751         3.696675
 H         0.914892        -2.167621         2.682370
 H         2.366774        -2.134830        -0.180875
