19
Iteration:  3386
 C         2.716312         1.279801        -0.192782
 C         1.721628         0.135004         0.110689
 C         0.570402        -0.416990        -0.918268
 C         0.318540        -1.222563         0.276574
 C         0.600281         0.029743         1.208646
 O         1.237460        -0.030131         2.493693
 C         1.671161        -1.328691         2.792100
 O         2.576334        -1.720402         1.698711
 C         1.993217        -1.365471         0.426503
 H         3.666316         1.327694         0.476598
 H         3.017904         0.973690        -1.201092
 H         2.170716         2.207455        -0.110139
 H        -0.338779         0.300776        -0.966002
 H         0.736641        -0.936674        -1.875104
 H        -0.445830        -1.968166         0.432888
 H        -0.089835         0.882065         1.074342
 H         2.312612        -1.209357         3.654417
 H         0.814950        -1.996932         2.860130
 H         2.478080        -1.889032        -0.369081
