19
Iteration:  1770charge 0 multiplicity 1
 C         2.693631         1.335899        -0.228952
 C         1.781790         0.090172         0.082800
 C         0.647658        -0.434686        -0.915773
 C         0.174045        -1.191739         0.400664
 C         0.584848         0.087127         1.171234
 O         1.116655        -0.094835         2.573194
 C         1.808025        -1.339846         2.725375
 O         2.657550        -1.630609         1.640937
 C         1.859944        -1.484635         0.481887
 H         3.506438         1.403149         0.555899
 H         3.235724         1.232640        -1.238824
 H         2.014831         2.156806        -0.137412
 H         0.046285         0.444251        -1.309333
 H         1.240290        -0.929603        -1.698205
 H        -0.603440        -1.983639         0.335990
 H         0.072878         1.091266         1.018185
 H         2.603942        -1.308977         3.510798
 H         1.074627        -2.120514         2.791162
 H         2.255298        -2.113700        -0.360309
