19
Iteration:  4707
 C         2.861613         1.035349        -0.199903
 C         1.706229         0.086762         0.150492
 C         0.644528        -0.410526        -0.894967
 C         0.381263        -1.269771         0.304891
 C         0.567936         0.081712         1.136557
 O         0.919418        -0.070883         2.573006
 C         1.752621        -1.184551         2.721174
 O         2.625489        -1.478620         1.637270
 C         1.924260        -1.427774         0.461752
 H         3.535263         1.294157         0.643588
 H         3.420377         0.756727        -1.099443
 H         2.282978         1.901231        -0.601836
 H        -0.170575         0.219545        -1.018270
 H         1.046676        -0.790194        -1.869458
 H        -0.350984        -2.003305         0.519729
 H         0.002585         1.009962         1.177964
 H         2.213682        -1.161096         3.685968
 H         1.098947        -2.139467         2.751158
 H         2.569760        -2.208231        -0.216537
