19
Iteration:  3971charge 0 multiplicity 1
 C         2.739751         1.107580        -0.154166
 C         1.677594         0.035949         0.033958
 C         0.629792        -0.331954        -0.994253
 C         0.435250        -1.335808         0.310912
 C         0.589171         0.041040         1.170972
 O         1.066805         0.033472         2.557213
 C         1.717913        -1.302362         2.811975
 O         2.630369        -1.535190         1.703695
 C         1.924758        -1.376804         0.389363
 H         3.444160         0.927525         0.702399
 H         3.279195         1.052499        -1.093013
 H         2.274468         2.062311         0.094099
 H        -0.303280         0.354975        -1.065523
 H         0.813591        -0.810320        -1.912909
 H        -0.369583        -2.038366         0.284707
 H        -0.142668         0.832068         1.237717
 H         2.266463        -1.120863         3.704916
 H         0.978915        -2.201055         2.722057
 H         2.470707        -2.061409        -0.179775
