19
Iteration:  3739charge 0 multiplicity 1
 C         2.605105         1.278314        -0.119271
 C         1.763218         0.083775         0.109380
 C         0.673082        -0.432762        -0.967133
 C         0.336470        -1.261272         0.441330
 C         0.673408         0.081293         1.128048
 O         1.230815         0.018559         2.461668
 C         1.636236        -1.300801         2.753916
 O         2.588181        -1.726462         1.708256
 C         1.957272        -1.414801         0.407481
 H         3.430128         1.596714         0.488911
 H         2.985750         1.192010        -1.123285
 H         1.861332         2.194419        -0.057491
 H        -0.091188         0.225537        -1.201948
 H         0.882150        -1.037272        -1.885249
 H        -0.563961        -1.903048         0.423331
 H        -0.044575         0.917412         1.096646
 H         2.249067        -1.195403         3.639874
 H         0.720682        -2.045112         2.772261
 H         2.176260        -2.011862        -0.418530
