19
Iteration:   184charge 0 multiplicity 1
 C         2.754396         1.090832         0.045821
 C         1.697068         0.025492         0.176661
 C         0.591413        -0.294609        -0.985166
 C         0.313448        -1.249590         0.201020
 C         0.584544         0.022755         1.194232
 O         0.901003        -0.278899         2.605920
 C         2.231275        -0.649250         2.582863
 O         2.381339        -1.816821         1.701987
 C         1.867639        -1.530202         0.375842
 H         3.505352         1.038105         0.829570
 H         3.368780         0.760377        -0.861283
 H         2.469441         2.131739        -0.048307
 H        -0.230222         0.432737        -1.173135
 H         0.955617        -0.768157        -1.877993
 H        -0.494005        -1.872489         0.221871
 H        -0.029426         0.898173         1.083010
 H         2.910516         0.061401         2.167794
 H         2.562812        -1.033050         3.580202
 H         2.398520        -2.107639        -0.441356
