19
Iteration:  1934charge 0 multiplicity 1
 C         2.723488         1.298074        -0.157379
 C         1.620237         0.142245         0.081667
 C         0.568312        -0.389618        -0.860403
 C         0.393998        -1.287156         0.359004
 C         0.586298         0.035334         1.194646
 O         1.236513        -0.002929         2.471293
 C         1.721776        -1.297896         2.760552
 O         2.552355        -1.700966         1.635455
 C         1.933050        -1.385412         0.377283
 H         3.445319         1.218359         0.746661
 H         3.514806         1.090512        -0.940523
 H         2.357860         2.303684        -0.125732
 H        -0.361959         0.094803        -1.128287
 H         1.014819        -0.951283        -1.642674
 H        -0.269476        -2.209551         0.342059
 H        -0.267856         0.708940         1.396753
 H         2.488659        -1.235343         3.553408
 H         0.876567        -2.081280         2.858995
 H         2.448522        -2.044081        -0.342599
