19
Iteration:  3777
 C         2.719667         1.305599        -0.087981
 C         1.679884         0.144795        -0.030200
 C         0.565180        -0.428606        -0.987024
 C         0.472291        -1.341555         0.309549
 C         0.643157         0.085722         1.181518
 O         1.166567         0.049682         2.554512
 C         1.716001        -1.206652         2.850955
 O         2.491135        -1.829716         1.672318
 C         1.956771        -1.374220         0.343051
 H         3.554906         0.990812         0.593852
 H         3.032916         1.171247        -1.165670
 H         2.249057         2.246931        -0.091899
 H        -0.471869         0.098218        -1.080246
 H         0.992149        -0.991722        -1.803974
 H        -0.201265        -2.158337         0.609398
 H        -0.214781         0.843800         1.271514
 H         2.322758        -0.961965         3.776249
 H         0.894278        -1.963715         3.084010
 H         2.718932        -2.000233        -0.289981
