19
Iteration:  2475charge 0 multiplicity 1
 C         2.882918         1.111990        -0.252583
 C         1.743196         0.213885         0.132740
 C         0.485612        -0.321927        -0.769324
 C         0.487254        -1.367823         0.433129
 C         0.575080        -0.000777         1.235410
 O         0.955778        -0.064433         2.572567
 C         1.709732        -1.273084         2.656833
 O         2.608550        -1.628194         1.575130
 C         1.905382        -1.316964         0.332375
 H         3.326874         1.637297         0.617432
 H         3.662462         0.644387        -0.917843
 H         2.617521         2.124895        -0.730997
 H        -0.265172         0.444026        -0.967061
 H         0.980915        -0.723734        -1.775475
 H         0.071773        -2.365453         0.533438
 H        -0.254777         0.805843         1.300349
 H         2.389569        -0.995765         3.532883
 H         1.003376        -2.057857         2.855189
 H         2.395041        -1.960381        -0.537272
