19
Iteration:  3559
 C         2.687680         1.293008        -0.182931
 C         1.710057         0.157055        -0.009629
 C         0.572225        -0.433125        -0.875410
 C         0.404557        -1.227659         0.371482
 C         0.669950         0.150483         1.093693
 O         1.137139        -0.019607         2.525898
 C         1.699086        -1.342867         2.766863
 O         2.582762        -1.800787         1.719170
 C         1.953924        -1.402100         0.447748
 H         3.499901         1.245948         0.621640
 H         3.012243         1.291718        -1.291745
 H         2.132049         2.211966        -0.001905
 H        -0.193812         0.306710        -1.219449
 H         0.772223        -1.000182        -1.724020
 H        -0.235697        -2.054301         0.523859
 H        -0.004221         0.957236         1.077517
 H         2.258549        -1.173452         3.685236
 H         0.935871        -2.101634         3.034451
 H         2.373694        -1.884060        -0.472515
