19
Iteration:  3782charge 0 multiplicity 1
 C         2.747385         1.269338        -0.111478
 C         1.706383         0.137487        -0.033971
 C         0.517646        -0.446820        -0.938564
 C         0.452764        -1.297937         0.288706
 C         0.630348         0.065908         1.187622
 O         1.140646         0.006363         2.556571
 C         1.715611        -1.184944         2.874043
 O         2.474177        -1.783108         1.627927
 C         2.017321        -1.393288         0.381039
 H         3.512867         1.080834         0.611596
 H         3.159089         1.169384        -1.098916
 H         2.201930         2.268503         0.006831
 H        -0.308302         0.149503        -1.178038
 H         0.917303        -1.003644        -1.847411
 H        -0.148242        -2.123450         0.697286
 H        -0.145436         0.782074         1.182037
 H         2.364660        -0.973223         3.696407
 H         0.924054        -1.876360         3.038255
 H         2.668620        -1.829707        -0.337519
