19
Iteration:  3437charge 0 multiplicity 1
 C         2.680530         1.301244        -0.089942
 C         1.745511         0.076888         0.015104
 C         0.583625        -0.389781        -0.911938
 C         0.299127        -1.261360         0.326089
 C         0.623095         0.125693         1.142152
 O         1.222003        -0.033288         2.474826
 C         1.795467        -1.290934         2.738733
 O         2.543502        -1.760178         1.693132
 C         1.917599        -1.410853         0.465477
 H         3.340060         1.627421         0.734752
 H         3.425178         1.284564        -0.996362
 H         1.872551         2.023901        -0.141561
 H        -0.104873         0.353607        -1.346359
 H         0.805881        -0.946854        -1.795143
 H        -0.256912        -2.028641         0.862571
 H        -0.225270         0.781750         1.151718
 H         2.371440        -1.179808         3.651215
 H         0.873548        -1.928139         2.762974
 H         2.351200        -2.092224        -0.306873
