19
Iteration:    97charge 0 multiplicity 1
 C         2.684586         1.228465        -0.322056
 C         1.714669         0.135136         0.017217
 C         0.532860        -0.377147        -0.890457
 C         0.393294        -1.244607         0.401833
 C         0.704399         0.061058         1.139896
 O         1.094148        -0.066252         2.580736
 C         1.723848        -1.304101         2.841165
 O         2.587554        -1.669104         1.681397
 C         1.987258        -1.394968         0.432745
 H         3.348284         1.360795         0.514642
 H         3.292740         0.890311        -1.206834
 H         2.239246         2.151108        -0.618616
 H        -0.355914         0.267353        -1.106307
 H         0.889352        -0.826386        -1.804779
 H        -0.398321        -1.852541         0.630540
 H        -0.127329         0.789599         1.229067
 H         2.353855        -1.145298         3.663129
 H         0.883629        -2.056918         2.912793
 H         2.514012        -2.044034        -0.353064
