19
Iteration:   874
 C         2.779856         1.159653        -0.192584
 C         1.635440         0.181194         0.090188
 C         0.534545        -0.346833        -0.846259
 C         0.362983        -1.309997         0.407422
 C         0.510949        -0.008569         1.191345
 O         1.205091         0.024517         2.470868
 C         1.750371        -1.285679         2.673809
 O         2.654446        -1.596349         1.658612
 C         1.952207        -1.433077         0.438972
 H         3.361581         1.428174         0.701360
 H         3.410590         0.606870        -0.883441
 H         2.344368         2.090338        -0.644344
 H        -0.134685         0.493322        -1.103912
 H         0.903030        -0.775969        -1.868657
 H        -0.341285        -2.244245         0.658604
 H        -0.485683         0.467448         1.232405
 H         2.223754        -1.248590         3.683010
 H         0.841456        -1.968067         2.740957
 H         2.250330        -2.157586        -0.248404
