19
Iteration:   800charge 0 multiplicity 1
 C         2.623340         1.103171        -0.186749
 C         1.670444         0.039887         0.125634
 C         0.642623        -0.337761        -0.965274
 C         0.298971        -1.203706         0.415091
 C         0.547418         0.160224         1.157479
 O         1.101795        -0.022522         2.519056
 C         1.888123        -1.288776         2.735300
 O         2.642834        -1.671788         1.671954
 C         1.972745        -1.435178         0.419820
 H         3.507947         1.217862         0.352705
 H         2.869776         0.846961        -1.263440
 H         2.087765         2.034489        -0.032452
 H        -0.127359         0.438719        -1.089967
 H         1.030630        -0.774026        -1.876541
 H        -0.539194        -1.915189         0.657489
 H        -0.094550         1.009461         1.067732
 H         2.421918        -1.150915         3.619493
 H         1.158706        -2.095325         3.052489
 H         2.483888        -1.943445        -0.462699
