19
Iteration:  1794charge 0 multiplicity 1
 C         2.749262         1.152704        -0.252525
 C         1.712204         0.193274        -0.014249
 C         0.512889        -0.369618        -0.909401
 C         0.439487        -1.150856         0.470982
 C         0.659175         0.103419         1.185469
 O         0.989125        -0.180625         2.603114
 C         1.749180        -1.348536         2.789036
 O         2.613758        -1.573619         1.623161
 C         1.981131        -1.392251         0.387970
 H         3.519505         1.131316         0.579552
 H         3.230064         0.780622        -1.178228
 H         2.244362         2.073703        -0.356905
 H        -0.340696         0.378585        -1.123588
 H         0.910047        -0.954460        -1.766830
 H        -0.291836        -1.894640         0.640856
 H        -0.295458         0.715868         1.168676
 H         2.516423        -1.220032         3.523198
 H         1.101800        -2.240288         2.937405
 H         2.552730        -1.941404        -0.434547
