19
Iteration:   555
 C         2.654272         1.169496        -0.378122
 C         1.743427         0.157172         0.059428
 C         0.604430        -0.342394        -0.877802
 C         0.409392        -1.144407         0.389956
 C         0.573823         0.125260         1.189149
 O         1.069487        -0.149869         2.569425
 C         1.816733        -1.272843         2.793643
 O         2.593177        -1.730685         1.718276
 C         1.968376        -1.386584         0.401333
 H         3.181899         1.491886         0.559203
 H         3.414836         1.016393        -1.122478
 H         2.066781         2.053052        -0.643726
 H        -0.183747         0.317716        -1.284393
 H         0.882425        -1.060533        -1.708264
 H        -0.406080        -1.953268         0.710904
 H        -0.354965         0.699728         1.131258
 H         2.511602        -1.057338         3.675407
 H         1.127634        -2.074509         3.045142
 H         2.349383        -1.999814        -0.398830
