19
Iteration:   595charge 0 multiplicity 1
 C         2.699504         1.118662        -0.163598
 C         1.684920         0.077742         0.018312
 C         0.485620        -0.445231        -0.828514
 C         0.495377        -1.283891         0.438278
 C         0.648091         0.091485         1.244970
 O         1.182267         0.069239         2.518474
 C         1.599618        -1.296766         2.690024
 O         2.604181        -1.585790         1.587509
 C         1.991022        -1.381492         0.371717
 H         3.404591         1.015886         0.607622
 H         3.190005         1.053209        -1.197326
 H         2.202950         2.071943        -0.124377
 H        -0.150589         0.440429        -1.023649
 H         0.888982        -0.955227        -1.633380
 H        -0.093350        -2.084136         0.709053
 H        -0.311829         0.629911         1.328204
 H         2.209160        -1.352594         3.567783
 H         0.773729        -2.095235         2.667324
 H         2.492916        -2.002209        -0.359540
