19
Iteration:  1089
 C         2.597188         1.295755        -0.187784
 C         1.735630         0.017457        -0.007236
 C         0.615776        -0.429875        -0.887019
 C         0.295271        -1.263390         0.418410
 C         0.628836         0.085724         1.201858
 O         1.264110        -0.030489         2.505676
 C         1.736981        -1.369648         2.724789
 O         2.581527        -1.617698         1.669633
 C         1.942593        -1.351513         0.432670
 H         3.084571         1.682181         0.760519
 H         3.474556         0.954874        -0.709943
 H         2.093069         2.056063        -0.783573
 H        -0.049852         0.424455        -1.056523
 H         0.726421        -0.996211        -1.802822
 H        -0.458402        -1.963682         0.530806
 H        -0.137058         0.880646         1.326841
 H         2.353712        -1.296211         3.649355
 H         0.880135        -2.012628         2.765379
 H         2.318061        -2.157266        -0.339092
