19
Iteration:  3405
 C         2.656361         1.278241        -0.180169
 C         1.649351         0.176763         0.030101
 C         0.628960        -0.360766        -0.893925
 C         0.488799        -1.328418         0.380785
 C         0.645918         0.101351         1.202435
 O         1.221666         0.061300         2.525281
 C         1.726336        -1.272052         2.722479
 O         2.421997        -1.838428         1.666051
 C         1.990873        -1.393866         0.371008
 H         3.339231         1.075515         0.680890
 H         3.063735         1.210715        -1.252951
 H         2.105779         2.200417        -0.035237
 H        -0.224219         0.333548        -1.124388
 H         1.124501        -0.900102        -1.658121
 H        -0.045613        -2.193163         0.771277
 H        -0.244070         0.648871         1.348259
 H         2.333742        -1.345035         3.637882
 H         0.791087        -1.981277         2.883342
 H         2.454806        -2.013294        -0.413954
