19
Iteration:   934
 C         2.642074         1.217366        -0.283063
 C         1.706904         0.163412         0.061143
 C         0.621297        -0.401451        -0.813618
 C         0.391800        -1.277607         0.398323
 C         0.677527         0.134399         1.164602
 O         1.130317        -0.087365         2.481828
 C         1.780998        -1.297732         2.734065
 O         2.543966        -1.686903         1.684606
 C         1.908923        -1.388682         0.445515
 H         3.212856         1.599072         0.589467
 H         3.295211         1.139582        -1.161091
 H         2.042829         2.090748        -0.544545
 H        -0.168855         0.348688        -0.994053
 H         1.077171        -0.784547        -1.685257
 H        -0.341785        -2.023726         0.528094
 H        -0.205570         0.772990         1.284968
 H         2.521250        -1.133965         3.578773
 H         1.127651        -2.205404         3.007021
 H         2.332320        -2.198388        -0.255966
