19
Iteration:  3448charge 0 multiplicity 1
 C         2.635702         1.196335        -0.119796
 C         1.730742         0.055174         0.025990
 C         0.629869        -0.366723        -0.972657
 C         0.303047        -1.192751         0.409172
 C         0.621325         0.052833         1.204447
 O         1.182681        -0.022342         2.461290
 C         1.754056        -1.339226         2.731521
 O         2.634281        -1.657844         1.704923
 C         1.869496        -1.401787         0.397711
 H         3.056099         1.324291         0.895094
 H         3.442260         1.260587        -0.936759
 H         2.113272         2.117034        -0.354760
 H        -0.048967         0.486633        -1.068060
 H         0.942606        -0.865488        -1.863315
 H        -0.458804        -1.989395         0.522305
 H         0.056606         0.959997         1.144072
 H         2.348851        -1.225411         3.636833
 H         1.018652        -2.085224         3.005899
 H         2.365579        -2.133386        -0.266008
