19
Iteration:   834charge 0 multiplicity 1
 C         2.782978         1.196875        -0.124712
 C         1.678676         0.108608        -0.039213
 C         0.545073        -0.441199        -0.918558
 C         0.405856        -1.271983         0.503064
 C         0.626913         0.087139         1.155377
 O         1.118697        -0.060429         2.533890
 C         1.817637        -1.283237         2.763662
 O         2.530616        -1.544553         1.628865
 C         1.875651        -1.445463         0.357663
 H         3.452641         1.100169         0.700586
 H         3.393708         1.189002        -1.093488
 H         2.353595         2.177780        -0.215686
 H        -0.272395         0.273280        -1.164877
 H         0.888174        -0.932607        -1.783069
 H        -0.342047        -1.950541         0.837801
 H        -0.156095         0.827834         1.196076
 H         2.559448        -1.144439         3.553444
 H         1.050169        -2.063322         2.915438
 H         2.323369        -2.188355        -0.425029
