19
Iteration:  1573charge 0 multiplicity 1
 C         2.662999         1.310636        -0.088198
 C         1.731246         0.105087        -0.024595
 C         0.510246        -0.566644        -0.888118
 C         0.345560        -1.168149         0.455653
 C         0.652901         0.153002         1.157801
 O         1.100542        -0.081112         2.532737
 C         1.755276        -1.281248         2.658489
 O         2.622631        -1.703359         1.630047
 C         2.040412        -1.398004         0.441106
 H         3.382762         1.232453         0.741331
 H         3.147814         1.549197        -1.092364
 H         2.024789         2.184843         0.154311
 H        -0.227053         0.197014        -1.269024
 H         0.742571        -1.304908        -1.744045
 H        -0.498311        -1.786984         0.574237
 H         0.125895         1.128607         1.070633
 H         2.468506        -1.229560         3.523433
 H         1.021418        -2.084866         2.720018
 H         2.296606        -2.178065        -0.334796
