19
Iteration:   855charge 0 multiplicity 1
 C         2.746294         1.094523        -0.146503
 C         1.651268         0.115290         0.078129
 C         0.457493        -0.422675        -0.866702
 C         0.403674        -1.310578         0.362743
 C         0.621541         0.059122         1.239072
 O         1.128406         0.057094         2.535624
 C         1.726639        -1.242970         2.707574
 O         2.642775        -1.657259         1.610453
 C         2.016901        -1.332108         0.390672
 H         3.278927         1.024331         0.756513
 H         3.479324         0.725712        -0.934504
 H         2.482022         2.098283        -0.414551
 H        -0.525465         0.078898        -0.988683
 H         0.666437        -0.945807        -1.775807
 H        -0.366324        -2.121058         0.419188
 H        -0.075433         0.858098         1.146848
 H         2.225459        -1.059101         3.599391
 H         0.865525        -1.913103         2.675531
 H         2.584179        -1.651432        -0.504733
