19
Iteration:  2952charge 0 multiplicity 1
 C         2.756489         1.164758        -0.110771
 C         1.626335         0.090950         0.040322
 C         0.621654        -0.311685        -0.892200
 C         0.400550        -1.330534         0.296752
 C         0.503183         0.044267         1.139317
 O         1.121550         0.000139         2.540275
 C         1.799827        -1.241079         2.727278
 O         2.576989        -1.702874         1.653159
 C         1.962021        -1.381021         0.440989
 H         3.490641         1.061564         0.801582
 H         3.281624         1.065169        -1.028520
 H         2.366954         2.224757        -0.093778
 H        -0.143546         0.451163        -1.089155
 H         0.869992        -0.850631        -1.882729
 H        -0.474648        -1.994388         0.430874
 H        -0.266281         0.741102         1.189736
 H         2.421081        -1.051767         3.622162
 H         1.000246        -1.889808         2.967620
 H         2.670539        -1.928545        -0.221075
