19
Iteration:   602
 C         2.700118         1.104171        -0.126367
 C         1.652751         0.058362        -0.025202
 C         0.523307        -0.462420        -0.890614
 C         0.449421        -1.253808         0.538520
 C         0.619238         0.076509         1.245150
 O         1.161176         0.082632         2.537734
 C         1.633445        -1.293980         2.677608
 O         2.618410        -1.631311         1.587663
 C         2.039392        -1.314281         0.376502
 H         3.510016         0.961717         0.649840
 H         3.213144         1.150194        -1.086647
 H         2.275092         2.152678        -0.025124
 H        -0.226793         0.294758        -1.064679
 H         0.686032        -1.056490        -1.859643
 H        -0.198017        -2.168727         0.736707
 H        -0.178086         0.812408         1.040256
 H         2.255094        -1.366386         3.550155
 H         0.880737        -2.019226         2.576201
 H         2.337157        -1.934619        -0.574395
