19
Iteration:  3485
 C         2.924381         1.127242        -0.206529
 C         1.676812         0.126381         0.030187
 C         0.521591        -0.382067        -0.846484
 C         0.413856        -1.309363         0.464892
 C         0.534680         0.043413         1.274064
 O         1.017589        -0.033567         2.523474
 C         1.773659        -1.354338         2.712667
 O         2.603697        -1.571937         1.604600
 C         1.957982        -1.272370         0.356677
 H         3.412252         1.303315         0.822410
 H         3.653184         0.527390        -0.700807
 H         2.576503         2.132276        -0.620682
 H        -0.338486         0.293876        -1.075967
 H         0.642642        -0.857381        -1.871051
 H        -0.259134        -2.169516         0.444856
 H        -0.327967         0.749494         1.186156
 H         2.350150        -1.158896         3.649304
 H         0.905452        -2.115138         2.751143
 H         2.244604        -1.743858        -0.564538
