19
Iteration:  4608charge 0 multiplicity 1
 C         2.610085         1.349890        -0.142888
 C         1.799567         0.044215         0.032575
 C         0.665575        -0.509796        -0.906069
 C         0.364854        -1.256959         0.289604
 C         0.665640         0.064766         1.055535
 O         1.178024         0.028287         2.450111
 C         1.681510        -1.183216         2.820053
 O         2.484702        -1.792568         1.739861
 C         1.970762        -1.381556         0.531699
 H         3.373575         1.383615         0.704593
 H         3.278419         1.150307        -1.029870
 H         2.084976         2.351569        -0.298048
 H        -0.163056         0.090353        -1.200176
 H         1.092897        -1.143201        -1.762780
 H        -0.545952        -1.779401         0.202564
 H        -0.059672         0.860196         1.158745
 H         2.199120        -1.194475         3.719674
 H         0.934988        -1.919445         3.082336
 H         2.541969        -2.086526        -0.287979
