19
Iteration:  1500charge 0 multiplicity 1
 C         2.738173         1.283009        -0.219494
 C         1.709118         0.174518         0.031035
 C         0.569540        -0.404262        -0.822798
 C         0.388130        -1.241666         0.436517
 C         0.601463         0.053836         1.209553
 O         1.081339        -0.123202         2.519634
 C         1.781549        -1.252359         2.718402
 O         2.569575        -1.633869         1.581057
 C         1.946271        -1.450652         0.449555
 H         3.054931         1.640049         0.805417
 H         3.548122         0.690981        -0.729118
 H         2.555727         2.115057        -0.848647
 H        -0.321419         0.198839        -1.102380
 H         0.829388        -0.980514        -1.658150
 H        -0.371727        -2.064066         0.566103
 H        -0.243961         0.785160         1.230453
 H         2.575689        -1.094685         3.489999
 H         1.135214        -2.181054         2.925711
 H         2.445767        -1.929242        -0.430007
