19
Iteration:  2505charge 0 multiplicity 1
 C         2.778875         1.143960        -0.355513
 C         1.623047         0.175656         0.019370
 C         0.592618        -0.271537        -0.922710
 C         0.329770        -1.208294         0.357656
 C         0.610184         0.050908         1.217556
 O         1.059859        -0.188988         2.595974
 C         1.747039        -1.402761         2.748655
 O         2.671760        -1.541385         1.735976
 C         1.931110        -1.334066         0.442484
 H         3.111392         1.409277         0.729031
 H         3.501860         0.577262        -0.912970
 H         2.445391         2.012474        -0.954018
 H        -0.068867         0.551928        -1.187612
 H         1.051828        -0.895069        -1.802465
 H        -0.388646        -1.997131         0.426407
 H        -0.149318         0.831055         1.399188
 H         2.295472        -1.344448         3.700107
 H         1.065500        -2.295770         2.904925
 H         2.511071        -1.990867        -0.205599
