19
Iteration:   702charge 0 multiplicity 1
 C         2.676455         1.142212        -0.212866
 C         1.651273         0.151125        -0.008256
 C         0.570936        -0.384725        -0.935697
 C         0.359074        -1.228505         0.366207
 C         0.603590         0.107993         1.226427
 O         1.116300        -0.059109         2.587288
 C         1.862831        -1.242797         2.826503
 O         2.586676        -1.699992         1.636156
 C         1.926405        -1.384789         0.381894
 H         3.138972         1.399603         0.734191
 H         3.523719         0.637555        -0.791751
 H         2.359592         2.093055        -0.684700
 H        -0.314245         0.169488        -1.219890
 H         0.866666        -0.998640        -1.795697
 H        -0.419245        -1.980704         0.411160
 H        -0.047393         0.967342         1.257941
 H         2.635767        -0.976534         3.550760
 H         1.262321        -2.113207         3.253861
 H         2.372340        -1.962441        -0.525606
