19
Iteration:  4482
 C         2.727921         1.151269        -0.241203
 C         1.660070         0.106655         0.098479
 C         0.678571        -0.358470        -0.948646
 C         0.375233        -1.283470         0.368609
 C         0.640772         0.058634         1.129145
 O         1.041007         0.003388         2.453352
 C         1.682495        -1.266047         2.775209
 O         2.540949        -1.668356         1.810211
 C         2.039306        -1.391635         0.416702
 H         3.241619         1.441257         0.650292
 H         3.483784         0.746354        -0.868704
 H         2.297249         2.086008        -0.579075
 H        -0.153036         0.338417        -1.159494
 H         1.141894        -0.811369        -1.801063
 H        -0.295169        -2.232012         0.426846
 H        -0.210848         0.800362         1.105935
 H         2.387901        -0.878712         3.587104
 H         0.866948        -1.979736         2.934552
 H         2.706395        -2.058399        -0.195803
