19
Iteration:  1488charge 0 multiplicity 1
 C         2.717892         1.197749        -0.196097
 C         1.735105         0.082210         0.071222
 C         0.564398        -0.453582        -0.857002
 C         0.374267        -1.210682         0.452789
 C         0.653838         0.113411         1.212797
 O         1.000445        -0.105798         2.532677
 C         1.812637        -1.350016         2.687935
 O         2.668196        -1.589920         1.612539
 C         1.896377        -1.344968         0.333789
 H         3.044080         1.766425         0.717385
 H         3.735170         1.050738        -0.723165
 H         2.048613         1.828826        -0.736638
 H        -0.070349         0.412474        -1.108273
 H         0.827676        -1.057256        -1.677463
 H        -0.468309        -1.773865         0.810272
 H        -0.151772         0.913068         1.211780
 H         2.395020        -1.125022         3.631805
 H         1.035293        -2.135572         2.964805
 H         2.289396        -2.144297        -0.387999
