19
Iteration:  2238charge 0 multiplicity 1
 C         2.615438         1.356666        -0.052018
 C         1.745644         0.114671        -0.074750
 C         0.628345        -0.440590        -0.942771
 C         0.346295        -1.224050         0.328788
 C         0.671904         0.103491         1.153954
 O         1.158269        -0.053398         2.490749
 C         1.814152        -1.293419         2.812734
 O         2.532900        -1.728512         1.651257
 C         1.903418        -1.473208         0.456279
 H         3.258518         1.198501         0.806532
 H         3.308974         1.269799        -0.898042
 H         1.903956         2.126120         0.160444
 H        -0.261520         0.274347        -1.192641
 H         0.869769        -0.971974        -1.871852
 H        -0.588445        -1.885188         0.521082
 H        -0.012179         0.967712         1.137491
 H         2.640875        -0.989446         3.491446
 H         1.132859        -2.091407         3.153470
 H         2.423795        -2.098875        -0.277839
