19
Iteration:  3779
 C         2.733799         1.298284        -0.091608
 C         1.691669         0.139814        -0.038164
 C         0.544106        -0.433602        -0.968233
 C         0.464504        -1.325842         0.297713
 C         0.634573         0.082900         1.185984
 O         1.156930         0.031074         2.558532
 C         1.714814        -1.197897         2.865283
 O         2.484397        -1.813807         1.651643
 C         1.978143        -1.381254         0.356591
 H         3.525050         1.011820         0.582602
 H         3.061825         1.156569        -1.138751
 H         2.235330         2.219765        -0.070226
 H        -0.417598         0.107836        -1.104606
 H         0.984614        -1.017952        -1.833153
 H        -0.169274        -2.141409         0.664966
 H        -0.160389         0.799967         1.245371
 H         2.319182        -0.942581         3.748697
 H         0.916637        -1.904238         3.054534
 H         2.738470        -1.939966        -0.311874
