19
Iteration:  2268charge 0 multiplicity 1
 C         2.692826         1.297542        -0.081668
 C         1.729913         0.144249         0.047756
 C         0.630619        -0.440966        -0.930245
 C         0.393361        -1.244434         0.372856
 C         0.540215         0.086430         1.248314
 O         1.118447        -0.030712         2.495064
 C         1.796771        -1.237281         2.753864
 O         2.550519        -1.788951         1.597955
 C         1.941805        -1.401098         0.412245
 H         3.117310         1.497040         0.877314
 H         3.413738         1.046638        -0.864396
 H         2.176219         2.223034        -0.469925
 H        -0.139551         0.159298        -1.218653
 H         0.940238        -1.000812        -1.822169
 H        -0.344217        -2.029030         0.462719
 H        -0.214565         0.856970         1.196399
 H         2.589443        -1.002665         3.401049
 H         1.188260        -2.107325         3.065933
 H         2.298387        -1.969770        -0.499628
