19
Iteration:  3967charge 0 multiplicity 1
 C         2.751614         1.123814        -0.149670
 C         1.682007         0.023317         0.042248
 C         0.626582        -0.344286        -0.990045
 C         0.413408        -1.339434         0.316565
 C         0.583088         0.016369         1.199057
 O         1.093933         0.037973         2.544663
 C         1.704747        -1.264992         2.827934
 O         2.617694        -1.573649         1.702309
 C         1.917029        -1.358240         0.390957
 H         3.504696         1.046864         0.644014
 H         3.306812         1.229713        -1.097156
 H         2.188003         2.102277         0.091529
 H        -0.226738         0.318261        -1.001939
 H         0.873474        -0.783731        -2.106210
 H        -0.351828        -2.207006         0.185148
 H        -0.143935         0.871603         1.148224
 H         2.267367        -1.100853         3.821675
 H         1.028405        -2.074083         2.520621
 H         2.462320        -2.091948        -0.303730
