19
Iteration:  2318charge 0 multiplicity 1
 C         2.832121         1.190748        -0.242667
 C         1.739539         0.176461        -0.040308
 C         0.483117        -0.402002        -0.844494
 C         0.371914        -1.245084         0.410984
 C         0.614102         0.054754         1.220146
 O         1.036716        -0.129922         2.570928
 C         1.740643        -1.406500         2.698846
 O         2.618236        -1.499689         1.676234
 C         1.970612        -1.330579         0.422252
 H         3.107091         1.283950         0.857003
 H         3.584136         0.744403        -0.907488
 H         2.555943         2.145481        -0.698345
 H        -0.334352         0.395087        -1.051760
 H         0.760479        -0.870504        -1.827347
 H        -0.305037        -2.041722         0.713004
 H        -0.205853         0.755388         1.083016
 H         2.268955        -1.603399         3.633222
 H         1.045631        -2.223754         2.544910
 H         2.454512        -1.942569        -0.300630
