19
Iteration:  3510charge 0 multiplicity 1
 C         2.844057         1.052290        -0.254169
 C         1.612639         0.169061         0.119648
 C         0.473538        -0.333373        -0.950493
 C         0.389630        -1.245048         0.337730
 C         0.636938         0.047448         1.247980
 O         1.027358        -0.105231         2.583714
 C         1.757618        -1.328699         2.691038
 O         2.661639        -1.552777         1.709600
 C         1.983844        -1.319191         0.398623
 H         3.398777         1.205453         0.658142
 H         3.472743         0.433195        -0.917818
 H         2.532257         2.080371        -0.661480
 H        -0.388868         0.292423        -1.166875
 H         0.876608        -0.604923        -2.021984
 H        -0.366747        -2.050080         0.643962
 H        -0.195650         0.893299         1.228794
 H         2.315637        -1.190573         3.666412
 H         0.953096        -2.184525         2.768571
 H         2.434121        -1.837403        -0.474779
