19
Iteration:  1583charge 0 multiplicity 1
 C         2.613307         1.235540        -0.088931
 C         1.739917         0.090093        -0.023934
 C         0.552839        -0.537096        -0.894227
 C         0.284050        -1.204486         0.415018
 C         0.743385         0.127096         1.135859
 O         1.089110        -0.071393         2.514706
 C         1.765731        -1.363837         2.730951
 O         2.635094        -1.619517         1.634745
 C         1.963196        -1.284162         0.400360
 H         3.499614         1.104575         0.465768
 H         3.108119         1.289932        -1.085314
 H         2.149851         2.223155         0.108434
 H        -0.306053         0.096027        -1.214263
 H         1.097911        -1.116841        -1.737932
 H        -0.465124        -1.741529         0.930022
 H         0.140092         1.019299         1.330096
 H         2.314782        -1.368199         3.719779
 H         0.986898        -2.202469         2.825912
 H         2.374104        -1.990622        -0.345722
