19
Iteration:  3081charge 0 multiplicity 1
 C         2.591875         1.324799        -0.153692
 C         1.770154         0.050026         0.078898
 C         0.687818        -0.377122        -0.932319
 C         0.311317        -1.180137         0.363225
 C         0.675901         0.134136         1.173672
 O         1.243514        -0.050641         2.444848
 C         1.720546        -1.320186         2.776720
 O         2.532982        -1.734717         1.695563
 C         1.893328        -1.459404         0.428256
 H         3.103176         1.462202         0.834122
 H         3.212857         1.312030        -1.036391
 H         1.770132         1.985429        -0.211611
 H        -0.032551         0.400543        -1.202876
 H         1.017250        -1.001992        -1.705998
 H        -0.365334        -2.073679         0.353702
 H        -0.057514         1.010313         1.075300
 H         2.313746        -1.333776         3.727872
 H         0.889963        -2.095669         2.876097
 H         2.355293        -2.151308        -0.280905
