19
Iteration:  4105charge 0 multiplicity 1
 C         2.687148         1.306648        -0.148188
 C         1.720135         0.150917        -0.012265
 C         0.696124        -0.454283        -0.963226
 C         0.352494        -1.243877         0.372440
 C         0.595398         0.052261         1.142831
 O         1.215318         0.026975         2.469606
 C         1.623734        -1.236879         2.816926
 O         2.556942        -1.744844         1.722172
 C         1.950084        -1.493954         0.485488
 H         3.309370         1.361286         0.721268
 H         3.316198         1.246578        -1.082250
 H         2.086599         2.213784        -0.257577
 H         0.045291         0.313664        -1.450363
 H         1.130707        -1.041414        -1.799653
 H        -0.385813        -2.096202         0.447002
 H        -0.304369         0.724193         1.225270
 H         2.148032        -1.144694         3.831992
 H         0.768697        -1.971615         2.782484
 H         2.467229        -2.075097        -0.318628
