19
Iteration:  1851charge 0 multiplicity 1
 C         2.663249         1.137805        -0.148409
 C         1.654281         0.141696        -0.006670
 C         0.604094        -0.398473        -0.917216
 C         0.340060        -1.229027         0.439205
 C         0.708557         0.089981         1.248187
 O         1.057387        -0.106690         2.547909
 C         1.773272        -1.308656         2.701841
 O         2.652026        -1.592408         1.620510
 C         1.932217        -1.353653         0.409391
 H         3.178157         1.279798         0.795154
 H         3.385951         0.819533        -0.895346
 H         2.452650         2.146541        -0.476498
 H        -0.192653         0.334138        -1.211674
 H         0.939674        -0.857126        -1.894449
 H        -0.340493        -2.017578         0.566313
 H        -0.103062         0.814138         1.205128
 H         2.301212        -1.277125         3.618488
 H         0.982277        -2.079553         2.820307
 H         2.372716        -1.916392        -0.442252
