19
Iteration:  1420charge 0 multiplicity 1
 C         2.688458         1.230244        -0.250127
 C         1.640167         0.257698         0.077152
 C         0.549274        -0.458043        -0.862380
 C         0.431856        -1.234221         0.361263
 C         0.623306         0.066008         1.242827
 O         1.088955         0.012517         2.561712
 C         1.771500        -1.219496         2.732142
 O         2.593176        -1.807738         1.686190
 C         2.034164        -1.416145         0.332190
 H         3.413999         0.940462         0.478984
 H         3.218394         1.021508        -1.226378
 H         2.157973         2.187804         0.054181
 H        -0.400254         0.045250        -1.021389
 H         0.995638        -0.796463        -1.836215
 H        -0.243723        -2.004816         0.356063
 H        -0.375875         0.598384         1.125124
 H         2.396361        -1.097995         3.631093
 H         0.985123        -2.023741         3.025364
 H         2.511187        -1.842424        -0.651985
