19
Iteration:  4903charge 0 multiplicity 1
 C         2.757619         1.197904        -0.125605
 C         1.736499         0.065584         0.072569
 C         0.621440        -0.455870        -0.872981
 C         0.422087        -1.225035         0.418381
 C         0.612640         0.150361         1.101232
 O         1.050482         0.017194         2.413205
 C         1.681690        -1.338773         2.724672
 O         2.612885        -1.646593         1.699149
 C         1.908087        -1.416702         0.460178
 H         3.352559         1.381369         0.798017
 H         3.316677         0.828664        -0.999199
 H         2.151515         2.062973        -0.414433
 H        -0.175150         0.242292        -1.211291
 H         1.127735        -0.985525        -1.818843
 H        -0.371229        -1.902698         0.754000
 H        -0.122936         0.957025         0.994033
 H         2.243217        -1.009469         3.562638
 H         0.997137        -2.156473         2.912617
 H         2.421240        -2.060267        -0.223437
