19
Iteration:  2946charge 0 multiplicity 1
 C         2.710735         1.160511        -0.061289
 C         1.655690         0.157577         0.089785
 C         0.603165        -0.311468        -0.907555
 C         0.381388        -1.320016         0.331631
 C         0.509959         0.021731         1.112788
 O         1.155793         0.037708         2.482953
 C         1.742060        -1.244932         2.716469
 O         2.613124        -1.741205         1.664444
 C         2.007334        -1.428258         0.414538
 H         3.496471         1.253875         0.616069
 H         3.239233         0.948839        -1.047582
 H         2.340087         2.192304        -0.043075
 H        -0.247716         0.369776        -1.041271
 H         0.878861        -0.782591        -1.835475
 H        -0.525214        -1.913447         0.441435
 H        -0.349970         0.831940         1.174444
 H         2.345813        -0.996598         3.585843
 H         0.955545        -2.041446         3.139842
 H         2.678094        -2.015845        -0.214320
