19
Iteration:  1328
 C         2.702784         1.141562        -0.202547
 C         1.607724         0.160454         0.067603
 C         0.516666        -0.359348        -0.944997
 C         0.388756        -1.329619         0.346449
 C         0.577109         0.000271         1.259945
 O         1.178161        -0.031163         2.555394
 C         1.738369        -1.272229         2.741119
 O         2.632636        -1.561087         1.657984
 C         1.982503        -1.347987         0.393726
 H         3.348485         1.353821         0.711152
 H         3.375700         0.534511        -0.821411
 H         2.538133         2.107756        -0.735493
 H        -0.290050         0.401871        -1.087636
 H         0.959825        -0.824551        -1.861194
 H        -0.187007        -2.323533         0.568468
 H        -0.298491         0.613268         1.273555
 H         2.323588        -1.401292         3.657084
 H         0.971382        -2.096080         2.815775
 H         2.553801        -1.783862        -0.373839
