19
Iteration:  3307charge 0 multiplicity 1
 C         2.761404         1.070001        -0.143634
 C         1.621143         0.135279         0.101802
 C         0.532895        -0.323527        -0.875848
 C         0.425820        -1.238925         0.344120
 C         0.502136         0.079342         1.246804
 O         1.120378        -0.035527         2.499678
 C         1.783915        -1.303015         2.704371
 O         2.635002        -1.633717         1.690325
 C         1.985030        -1.348888         0.343954
 H         3.153051         1.103964         0.914896
 H         3.321123         0.473947        -0.952788
 H         2.369029         1.939314        -0.672699
 H        -0.141132         0.612944        -1.139815
 H         0.957871        -0.740352        -1.796549
 H        -0.289535        -2.070284         0.235243
 H        -0.362405         0.690945         1.076304
 H         2.391355        -1.206731         3.605420
 H         1.073253        -2.030798         2.976103
 H         2.529499        -1.888410        -0.446838
