19
Iteration:  1918
 C         2.641350         1.206463        -0.076993
 C         1.617377         0.142147         0.095439
 C         0.596621        -0.332855        -0.980898
 C         0.401885        -1.339638         0.277304
 C         0.575808        -0.042333         1.245853
 O         1.319432         0.060375         2.505715
 C         1.790835        -1.214036         2.755713
 O         2.489707        -1.794584         1.660364
 C         1.962665        -1.347657         0.402552
 H         3.263363         1.297489         0.749038
 H         2.986776         0.938336        -1.025497
 H         2.077565         2.168895        -0.282068
 H        -0.079170         0.531208        -1.224051
 H         0.971776        -0.739800        -2.008238
 H        -0.353011        -2.085663         0.451757
 H        -0.302132         0.617309         1.221184
 H         2.367196        -1.209217         3.695527
 H         0.965785        -1.842919         3.032455
 H         2.558062        -1.781571        -0.400100
