19
Iteration:  1472charge 0 multiplicity 1
 C         2.640411         1.194354        -0.207454
 C         1.725865         0.060168        -0.013032
 C         0.543912        -0.353845        -0.938043
 C         0.274414        -1.175962         0.385757
 C         0.668291         0.125762         1.209931
 O         1.042552        -0.088780         2.625351
 C         1.779045        -1.353646         2.702389
 O         2.735167        -1.543268         1.641045
 C         1.978474        -1.481996         0.487548
 H         3.008355         1.442121         0.786437
 H         3.429522         0.771634        -0.813344
 H         2.189979         2.097058        -0.770354
 H        -0.305239         0.296686        -1.198101
 H         0.918353        -0.946694        -1.886179
 H        -0.441757        -2.054532         0.550916
 H         0.099018         1.035257         1.119627
 H         2.304973        -1.479770         3.611122
 H         1.078912        -2.155508         2.621139
 H         2.388410        -2.051572        -0.308835
