19
Iteration:  4692charge 0 multiplicity 1
 C         2.847595         1.021836        -0.232619
 C         1.749146         0.086267         0.037966
 C         0.624103        -0.365518        -0.913928
 C         0.380828        -1.307961         0.405301
 C         0.588602         0.049797         1.247992
 O         0.907330        -0.016264         2.578179
 C         1.698807        -1.291558         2.730466
 O         2.632932        -1.460122         1.701482
 C         1.959446        -1.357881         0.346969
 H         3.357484         1.265600         0.683072
 H         3.596856         0.508690        -0.827567
 H         2.691415         1.979788        -0.662805
 H        -0.105388         0.424769        -1.293880
 H         0.970663        -1.013780        -1.684876
 H        -0.372307        -2.180921         0.370137
 H        -0.346851         0.589536         1.084525
 H         2.414190        -0.956780         3.493096
 H         1.001856        -2.081660         2.787531
 H         2.394445        -1.908304        -0.388402
