19
Iteration:  4418charge 0 multiplicity 1
 C         2.704718         1.216730        -0.175542
 C         1.727191         0.073294         0.028912
 C         0.700968        -0.504459        -0.935676
 C         0.380587        -1.275997         0.318990
 C         0.499656         0.083488         1.149905
 O         1.209406         0.097632         2.447676
 C         1.597426        -1.278637         2.711474
 O         2.514868        -1.754991         1.787530
 C         2.064671        -1.338210         0.503599
 H         3.167187         1.507733         0.781326
 H         3.449505         1.212115        -1.050557
 H         1.950591         2.045533        -0.259215
 H         0.016985         0.417626        -1.172502
 H         1.038284        -1.034429        -1.776453
 H        -0.394718        -2.113799         0.508533
 H        -0.166372         0.964045         1.097682
 H         2.255792        -1.255321         3.677230
 H         0.730914        -1.892546         2.999511
 H         2.698491        -2.034250        -0.294979
