19
Iteration:  3065charge 0 multiplicity 1
 C         2.633221         1.328430        -0.190094
 C         1.738618         0.165206         0.019429
 C         0.626199        -0.418082        -0.858287
 C         0.368636        -1.229344         0.380176
 C         0.676780         0.059650         1.146478
 O         1.155225        -0.035711         2.468702
 C         1.668535        -1.332121         2.705709
 O         2.576774        -1.825339         1.701484
 C         1.973712        -1.396637         0.512501
 H         3.290736         1.631994         0.604230
 H         3.403492         1.093280        -1.009765
 H         2.155100         2.352338        -0.354251
 H        -0.153088         0.342314        -1.154955
 H         0.906625        -0.858840        -1.887534
 H        -0.588303        -1.684470         0.660801
 H        -0.043089         1.023150         1.266922
 H         2.304009        -1.196750         3.563138
 H         0.916743        -2.057388         2.850252
 H         2.306863        -1.989502        -0.357581
