19
Iteration:   975
 C         2.787923         1.233359        -0.202324
 C         1.644115         0.157360         0.028341
 C         0.467367        -0.433174        -0.817695
 C         0.439340        -1.372484         0.370610
 C         0.616836         0.090831         1.228783
 O         1.156299         0.029747         2.521268
 C         1.733330        -1.325890         2.673096
 O         2.613925        -1.617246         1.638723
 C         1.934174        -1.379722         0.446315
 H         3.394264         0.868681         0.583916
 H         3.378746         1.027012        -1.142447
 H         2.514333         2.281708        -0.093937
 H        -0.497491         0.140068        -1.003097
 H         0.884840        -0.828187        -1.787152
 H        -0.288148        -2.265296         0.564098
 H        -0.276650         0.684088         1.141931
 H         2.257639        -1.276841         3.604452
 H         0.841770        -1.929440         2.666101
 H         2.429174        -1.923319        -0.324409
