19
Iteration:  3174charge 0 multiplicity 1
 C         2.819387         1.135558        -0.208755
 C         1.705207         0.093660         0.081321
 C         0.633976        -0.304244        -0.892237
 C         0.295426        -1.188094         0.412778
 C         0.637144         0.069682         1.172006
 O         0.977147        -0.139890         2.592903
 C         1.729553        -1.340420         2.769799
 O         2.639766        -1.467920         1.540317
 C         1.943931        -1.451254         0.382090
 H         3.461817         1.215654         0.676581
 H         3.443572         0.649034        -1.076663
 H         2.436328         2.208826        -0.489750
 H        -0.203705         0.463186        -1.029221
 H         0.908108        -1.042236        -1.714051
 H        -0.450981        -1.945935         0.732844
 H        -0.075597         0.822372         1.352896
 H         2.395959        -1.253633         3.654535
 H         1.068565        -2.329447         2.966108
 H         2.401388        -2.218502        -0.318244
