19
Iteration:   327
 C         2.763068         1.141275        -0.067257
 C         1.652285         0.065013        -0.010939
 C         0.479053        -0.450389        -0.883544
 C         0.430319        -1.275405         0.474107
 C         0.586561         0.114970         1.196994
 O         1.201192         0.091939         2.504086
 C         1.683085        -1.303022         2.624483
 O         2.655441        -1.605592         1.624763
 C         1.916665        -1.414186         0.421634
 H         3.070990         1.283274         0.997940
 H         3.620293         0.757415        -0.653492
 H         2.429384         2.152689        -0.367234
 H        -0.391556         0.211046        -1.012718
 H         0.648524        -1.086507        -1.785558
 H        -0.235709        -2.070100         0.588699
 H        -0.136390         0.899272         1.003961
 H         2.262751        -1.198277         3.508890
 H         0.953729        -2.090631         2.426927
 H         2.380056        -2.155328        -0.341449
