19
Iteration:  3082
 C         2.593231         1.320939        -0.152912
 C         1.769860         0.048724         0.085728
 C         0.678147        -0.374690        -0.942670
 C         0.316353        -1.177212         0.353522
 C         0.680324         0.135132         1.179969
 O         1.243842        -0.040957         2.451454
 C         1.721727        -1.318635         2.774040
 O         2.529634        -1.731242         1.693749
 C         1.894527        -1.466639         0.430340
 H         3.108401         1.486863         0.841321
 H         3.204477         1.289422        -1.008857
 H         1.744305         1.982734        -0.176846
 H        -0.011254         0.383722        -1.241418
 H         1.021116        -1.010965        -1.745133
 H        -0.344628        -2.063399         0.401333
 H        -0.052633         0.922792         1.072759
 H         2.332600        -1.345227         3.707703
 H         0.876742        -2.126013         2.873180
 H         2.337338        -2.161187        -0.290462
