19
Iteration:  2891
 C         2.629874         1.284272        -0.172453
 C         1.789771         0.163673         0.014521
 C         0.601439        -0.447400        -0.937037
 C         0.372595        -1.242966         0.375029
 C         0.703396         0.113464         1.223393
 O         1.161971        -0.078683         2.551025
 C         1.656608        -1.312402         2.702155
 O         2.581502        -1.695256         1.691068
 C         1.906380        -1.393939         0.433501
 H         3.127039         1.567183         0.708064
 H         3.476746         1.166085        -0.881953
 H         2.029540         2.155102        -0.525262
 H        -0.066688         0.270973        -1.348526
 H         0.943956        -1.139615        -1.699569
 H        -0.320060        -2.041989         0.589282
 H         0.014027         1.048538         1.186406
 H         2.150020        -1.409885         3.639339
 H         0.937725        -2.122856         2.574999
 H         2.330161        -2.072420        -0.287721
