19
Iteration:  1561
 C         2.676004         1.364148        -0.099771
 C         1.720472         0.070110         0.030101
 C         0.572313        -0.435542        -0.918643
 C         0.379941        -1.238800         0.469106
 C         0.625976         0.095149         1.179708
 O         1.134051         0.031665         2.482091
 C         1.759931        -1.292590         2.696233
 O         2.651128        -1.730337         1.621930
 C         1.894390        -1.501203         0.384305
 H         3.378935         1.334977         0.715754
 H         3.312231         1.457147        -1.005043
 H         2.022733         2.283227         0.014281
 H        -0.267448         0.251534        -1.138814
 H         0.790970        -1.214929        -1.749673
 H        -0.253097        -2.067589         0.721763
 H        -0.320509         0.657052         1.215448
 H         2.265669        -1.143185         3.671443
 H         0.961198        -2.045789         2.885503
 H         2.439612        -2.053576        -0.398559
