19
Iteration:  3270
 C         2.709702         1.364945        -0.120493
 C         1.721003         0.058888        -0.030147
 C         0.559837        -0.415996        -0.921097
 C         0.401800        -1.184147         0.419313
 C         0.673354         0.091430         1.203958
 O         1.132216         0.014747         2.476341
 C         1.746683        -1.392251         2.722234
 O         2.541467        -1.719448         1.664794
 C         1.916101        -1.482323         0.421662
 H         3.234307         1.503614         0.794066
 H         3.559762         1.447055        -0.789645
 H         2.125282         2.334726        -0.163344
 H        -0.168222         0.236609        -1.277377
 H         0.836323        -1.283278        -1.592049
 H        -0.363788        -1.985870         0.557827
 H        -0.073463         0.920132         1.190960
 H         2.441315        -1.127752         3.526351
 H         0.940907        -2.111365         3.006197
 H         2.382611        -2.132323        -0.366507
