19
Iteration:  1542
 C         2.606521         1.211134        -0.118470
 C         1.612768         0.132081         0.110963
 C         0.592974        -0.348923        -0.871415
 C         0.395370        -1.359455         0.323642
 C         0.610459        -0.034068         1.173873
 O         1.270717         0.020715         2.494743
 C         1.776074        -1.216564         2.719423
 O         2.510601        -1.686442         1.645143
 C         2.009961        -1.382635         0.416460
 H         3.213362         1.349916         0.826414
 H         3.253858         0.911585        -1.049176
 H         2.078601         2.132900        -0.324572
 H        -0.265076         0.378420        -0.988812
 H         0.986262        -0.667565        -1.843552
 H        -0.358480        -2.108616         0.267216
 H        -0.122970         0.830767         1.090464
 H         2.443854        -1.183393         3.617654
 H         0.966949        -1.868447         2.941557
 H         2.491917        -2.128236        -0.334496
