19
Iteration:  1507charge 0 multiplicity 1
 C         2.742454         1.264742        -0.226661
 C         1.615401         0.200493         0.042265
 C         0.549238        -0.366449        -0.881102
 C         0.382733        -1.277401         0.423335
 C         0.588589         0.001080         1.153664
 O         1.120547        -0.065798         2.571365
 C         1.812605        -1.262623         2.739940
 O         2.569770        -1.699367         1.635544
 C         1.943341        -1.392293         0.413556
 H         3.194596         1.592893         0.708163
 H         3.668535         0.738275        -0.647671
 H         2.626005         2.238342        -0.822286
 H        -0.425847         0.140501        -1.027209
 H         0.971063        -0.842473        -1.849778
 H        -0.189520        -2.147982         0.391069
 H        -0.212351         0.765728         1.268501
 H         2.495031        -1.065735         3.590183
 H         1.168585        -2.085800         2.922764
 H         2.476388        -2.085808        -0.328684
