19
Iteration:  1481charge 0 multiplicity 1
 C         2.694740         1.157985        -0.198517
 C         1.741342         0.047054         0.072432
 C         0.552935        -0.418266        -0.924229
 C         0.303381        -1.149333         0.480596
 C         0.675740         0.106797         1.157953
 O         0.993523        -0.081901         2.599622
 C         1.820908        -1.366532         2.695328
 O         2.707355        -1.581031         1.643492
 C         1.926912        -1.364481         0.358315
 H         2.911918         1.720677         0.726894
 H         3.551281         1.102711        -0.788289
 H         2.075793         1.917306        -0.728223
 H        -0.221143         0.331207        -1.153767
 H         0.904196        -0.932819        -1.848998
 H        -0.383646        -2.073852         0.656987
 H         0.056551         0.972878         1.114394
 H         2.361816        -1.222339         3.615373
 H         1.132348        -2.265330         2.636554
 H         2.243432        -2.086330        -0.325085
