19
Iteration:  3683
 C         2.825778         1.040690        -0.269112
 C         1.656186         0.199626         0.147288
 C         0.563770        -0.301557        -0.886370
 C         0.394569        -1.345634         0.331595
 C         0.552946         0.094528         1.221835
 O         1.042336        -0.108586         2.559855
 C         1.751526        -1.293048         2.675221
 O         2.661610        -1.545617         1.679496
 C         1.969021        -1.328820         0.465157
 H         3.259780         1.320509         0.683648
 H         3.488160         0.388038        -0.878643
 H         2.422128         1.853163        -1.024851
 H        -0.321765         0.260312        -0.994570
 H         0.921202        -0.761224        -1.861426
 H        -0.474584        -2.069801         0.184461
 H        -0.337472         0.713907         1.214993
 H         2.222284        -1.157892         3.664078
 H         0.908205        -2.064433         2.831545
 H         2.521670        -1.783333        -0.374821
