19
Iteration:  3078
 C         2.590942         1.324906        -0.150621
 C         1.769154         0.057810         0.055433
 C         0.706596        -0.379701        -0.896128
 C         0.303248        -1.193063         0.384620
 C         0.661626         0.129020         1.154644
 O         1.239125        -0.069994         2.434176
 C         1.716648        -1.327221         2.778741
 O         2.543138        -1.746533         1.699634
 C         1.891922        -1.438400         0.428535
 H         3.110666         1.427017         0.782124
 H         3.243380         1.371955        -1.094306
 H         1.807471         2.077931        -0.317753
 H        -0.076463         0.429287        -1.115205
 H         1.030992        -1.024440        -1.700973
 H        -0.424211        -2.044760         0.261828
 H        -0.011544         1.161756         1.116549
 H         2.254125        -1.279699         3.743028
 H         0.914556        -2.000844         2.886915
 H         2.395209        -2.124120        -0.271992
