19
Iteration:  4207charge 0 multiplicity 1
 C         2.861772         1.161750        -0.225923
 C         1.709847         0.122512         0.051794
 C         0.578766        -0.355221        -0.915690
 C         0.470270        -1.380837         0.301953
 C         0.602193         0.108454         1.193456
 O         1.023284        -0.002355         2.574426
 C         1.645204        -1.252172         2.721179
 O         2.613136        -1.581410         1.730691
 C         1.902891        -1.448471         0.431515
 H         3.394399         1.409842         0.722517
 H         3.547239         0.673093        -0.862968
 H         2.480986         2.148416        -0.536285
 H        -0.193727         0.298493        -1.184939
 H         0.947498        -0.962867        -1.838763
 H        -0.366372        -2.075820         0.442895
 H        -0.224360         0.870944         1.135031
 H         2.171071        -1.194450         3.674209
 H         0.861040        -2.095072         2.686018
 H         2.382732        -2.183385        -0.319935
