19
Iteration:  3400charge 0 multiplicity 1
 C         2.672910         1.251987        -0.181085
 C         1.685500         0.153667         0.074368
 C         0.560823        -0.363492        -0.934282
 C         0.500892        -1.315159         0.388115
 C         0.636550         0.082300         1.162947
 O         1.237064         0.043377         2.535735
 C         1.703652        -1.272181         2.734204
 O         2.445914        -1.821471         1.651962
 C         1.974330        -1.360747         0.422738
 H         3.444990         1.195792         0.579227
 H         2.998407         1.293432        -1.182850
 H         2.125629         2.236423        -0.135915
 H        -0.196121         0.353748        -1.172483
 H         1.102356        -0.918397        -1.774291
 H        -0.213513        -2.207726         0.558336
 H        -0.307125         0.701617         1.395072
 H         2.288501        -1.406670         3.657603
 H         0.923059        -1.952466         2.905769
 H         2.527674        -1.947768        -0.344390
