19
Iteration:  2061
 C         2.586978         1.242791        -0.010481
 C         1.709775         0.020346         0.034247
 C         0.565612        -0.383834        -0.958329
 C         0.321906        -1.223246         0.324957
 C         0.695818         0.099524         1.121702
 O         1.244791         0.060100         2.551152
 C         1.780726        -1.383971         2.698950
 O         2.607113        -1.646163         1.611334
 C         1.880171        -1.477566         0.467173
 H         3.137485         1.315122         0.951677
 H         3.091242         1.264852        -1.024596
 H         1.952604         2.252259        -0.170684
 H        -0.034149         0.551239        -1.211899
 H         0.915823        -0.926655        -1.972195
 H        -0.487200        -1.988193         0.559980
 H        -0.010407         0.964156         1.262330
 H         2.446460        -1.334047         3.689088
 H         0.901967        -2.104051         2.859536
 H         2.406413        -2.330582        -0.190614
