19
Iteration:  2910
 C         2.671842         1.325274        -0.094079
 C         1.713527         0.125171        -0.032467
 C         0.638836        -0.476591        -0.960372
 C         0.368369        -1.239776         0.435748
 C         0.690201         0.099572         1.170793
 O         1.219448         0.065060         2.563303
 C         1.644523        -1.395106         2.756783
 O         2.493487        -1.676704         1.655797
 C         2.023901        -1.457992         0.384187
 H         3.088512         1.280479         0.949973
 H         3.307012         1.337316        -0.897545
 H         1.949111         2.190668        -0.303037
 H        -0.237351         0.065097        -1.229342
 H         0.871469        -1.054287        -1.967921
 H        -0.449998        -1.895894         0.543458
 H        -0.165345         0.829089         1.071891
 H         2.447818        -1.435952         3.494313
 H         0.785827        -2.229610         2.833375
 H         2.424182        -2.047606        -0.431143
