19
Iteration:   857
 C         2.754053         1.106160        -0.155156
 C         1.636149         0.118438         0.080007
 C         0.469635        -0.406366        -0.863443
 C         0.390139        -1.325377         0.373796
 C         0.599840         0.036244         1.239096
 O         1.137454         0.059329         2.528648
 C         1.715053        -1.229219         2.705498
 O         2.655574        -1.661191         1.621272
 C         2.013577        -1.350423         0.384390
 H         3.311997         1.040836         0.785949
 H         3.494590         0.745441        -0.939522
 H         2.534105         2.109923        -0.479700
 H        -0.525840         0.058872        -0.963595
 H         0.692317        -0.910173        -1.746638
 H        -0.395092        -2.007330         0.400147
 H        -0.106531         0.870245         1.171975
 H         2.270390        -1.093952         3.658302
 H         0.873576        -1.913549         2.601417
 H         2.658887        -1.645759        -0.560632
