19
Iteration:    20charge 0 multiplicity 1
 C         2.709676         1.185159        -0.183218
 C         1.680076         0.145953         0.089909
 C         0.593585        -0.242548        -0.869060
 C         0.413984        -1.331699         0.333502
 C         0.612766        -0.012329         1.168023
 O         0.962154        -0.024673         2.494157
 C         2.000105        -1.027960         2.817173
 O         2.472122        -1.847874         1.665450
 C         1.923293        -1.491707         0.363850
 H         3.406410         1.360812         0.608337
 H         3.334137         0.795548        -1.032260
 H         2.322045         2.133772        -0.474186
 H        -0.250232         0.492854        -0.976244
 H         0.934025        -0.602720        -1.828529
 H        -0.288582        -2.060075         0.533470
 H        -0.202749         0.729091         1.094898
 H         2.925394        -0.627406         3.252301
 H         1.669453        -1.819788         3.562554
 H         2.422441        -2.132662        -0.441987
