19
Iteration:  4615charge 0 multiplicity 1
 C         2.604300         1.329723        -0.123003
 C         1.751249         0.056855         0.011525
 C         0.700099        -0.487743        -0.955290
 C         0.396843        -1.237507         0.297501
 C         0.683023         0.069966         1.093019
 O         1.167382         0.048144         2.454023
 C         1.708744        -1.250958         2.831464
 O         2.489806        -1.734688         1.777956
 C         1.926032        -1.457704         0.464854
 H         3.254985         1.494849         0.686960
 H         3.245351         1.274861        -0.988488
 H         2.076699         2.184706        -0.439798
 H        -0.057256         0.220848        -1.379596
 H         1.048017        -1.074757        -1.742460
 H        -0.381201        -2.075515         0.523303
 H         0.125571         1.024741         1.066850
 H         2.296558        -1.248622         3.838026
 H         0.758590        -1.919486         3.000400
 H         2.311343        -2.154814        -0.222715
