19
Iteration:    63
 C         2.640530         1.207442        -0.281544
 C         1.660057         0.186427         0.036540
 C         0.643804        -0.488890        -0.846589
 C         0.420972        -1.212134         0.526424
 C         0.668901         0.137203         1.167376
 O         1.242302        -0.024584         2.536935
 C         1.558595        -1.372430         2.632139
 O         2.659641        -1.582265         1.649881
 C         1.900268        -1.426018         0.497527
 H         3.238588         1.379385         0.598898
 H         3.367378         0.872009        -1.087107
 H         2.190299         2.151402        -0.523440
 H        -0.326544        -0.005441        -1.154805
 H         1.126484        -1.048947        -1.627733
 H        -0.396939        -1.810703         0.743954
 H        -0.133344         0.891990         1.123313
 H         1.902698        -1.722472         3.580090
 H         0.864651        -2.228788         2.414964
 H         2.262998        -2.123544        -0.341033
