19
Iteration:  4288
 C         2.624258         1.232378        -0.104267
 C         1.767778         0.065177         0.023297
 C         0.706380        -0.445410        -0.930026
 C         0.463124        -1.234137         0.435233
 C         0.656961         0.093533         1.096256
 O         1.161836         0.016620         2.381426
 C         1.612535        -1.218209         2.838949
 O         2.467285        -1.765036         1.716642
 C         1.984772        -1.386757         0.420447
 H         3.276506         1.287001         0.785851
 H         3.343824         1.219416        -1.002926
 H         2.079553         2.142181        -0.386529
 H        -0.160532         0.279786        -1.232880
 H         1.091662        -0.932814        -1.810961
 H        -0.357466        -1.963401         0.593801
 H        -0.109739         0.840433         1.082061
 H         2.222172        -1.094500         3.767197
 H         0.750532        -1.946725         3.011122
 H         2.445228        -2.122728        -0.243058
