19
Iteration:  4977
 C         2.755263         1.276834        -0.205913
 C         1.766734         0.100817         0.062393
 C         0.626219        -0.442760        -1.005433
 C         0.360629        -1.227620         0.380201
 C         0.653776         0.141338         1.102965
 O         1.069266        -0.006181         2.486126
 C         1.676381        -1.286181         2.811045
 O         2.611260        -1.726749         1.755743
 C         1.952479        -1.442069         0.447660
 H         3.550981         1.258346         0.590037
 H         3.161888         1.129050        -1.205527
 H         2.061355         2.117720        -0.098244
 H        -0.231141         0.188309        -1.321928
 H         0.919316        -1.013568        -1.749539
 H        -0.565341        -1.820471         0.660758
 H        -0.116434         0.908469         1.120726
 H         2.265043        -1.300763         3.743455
 H         0.703056        -1.966458         2.978503
 H         2.306935        -2.202036        -0.209205
