19
Iteration:  1145
 C         2.747953         1.131289        -0.258784
 C         1.630109         0.185871        -0.000179
 C         0.448891        -0.330756        -0.890680
 C         0.486850        -1.369239         0.329812
 C         0.610348         0.054677         1.205016
 O         1.130302        -0.046213         2.581854
 C         1.797923        -1.263286         2.795015
 O         2.544738        -1.673419         1.693202
 C         2.003089        -1.291365         0.383846
 H         3.431338         1.045009         0.598271
 H         3.210050         0.919519        -1.209186
 H         2.368697         2.186101        -0.254451
 H        -0.496991         0.131661        -0.963103
 H         0.791605        -0.728200        -1.872960
 H        -0.176776        -2.167638         0.533313
 H        -0.293060         0.728869         1.227300
 H         2.430229        -1.155426         3.643466
 H         1.068353        -2.011293         3.068107
 H         2.599566        -1.823361        -0.444490
