19
Iteration:  3036
 C         2.768623         1.191392        -0.254730
 C         1.710637         0.153900         0.002153
 C         0.598027        -0.388927        -0.849826
 C         0.460489        -1.336164         0.313756
 C         0.638505         0.025910         1.308739
 O         1.112981        -0.017092         2.605215
 C         1.617072        -1.331553         2.723311
 O         2.515677        -1.635189         1.652375
 C         2.001222        -1.269070         0.372571
 H         3.346450         1.384964         0.681242
 H         3.456737         0.740858        -1.029631
 H         2.299061         2.089021        -0.562383
 H        -0.286851         0.311570        -0.991263
 H         0.928807        -0.830028        -1.736805
 H        -0.305033        -2.155480         0.501957
 H        -0.150341         0.839161         1.179177
 H         2.343623        -1.419278         3.568645
 H         0.830206        -2.170886         2.841065
 H         2.379459        -1.879331        -0.467260
