19
Iteration:  4491
 C         2.807254         1.148565        -0.282670
 C         1.714948         0.119770         0.050961
 C         0.667469        -0.357774        -0.930089
 C         0.412206        -1.319522         0.330976
 C         0.488896         0.060695         1.170631
 O         1.032450        -0.029827         2.508093
 C         1.703125        -1.209349         2.778032
 O         2.569660        -1.615664         1.755765
 C         1.988361        -1.413620         0.463961
 H         3.328666         1.250717         0.688927
 H         3.524016         0.678166        -0.908713
 H         2.604124         2.171697        -0.644602
 H        -0.209082         0.218542        -1.151452
 H         1.231439        -0.769194        -1.843002
 H        -0.421784        -2.059489         0.319354
 H        -0.445265         0.693141         1.199925
 H         2.166702        -1.189776         3.758995
 H         1.047433        -2.068043         3.076718
 H         2.584039        -1.923678        -0.203705
