19
Iteration:  4033
 C         2.757385         1.089353        -0.213839
 C         1.715336         0.148468         0.088532
 C         0.632030        -0.322881        -0.944868
 C         0.376479        -1.312449         0.323621
 C         0.638981        -0.002017         1.220576
 O         1.027177        -0.118084         2.544908
 C         1.662704        -1.240846         2.787406
 O         2.610426        -1.534656         1.687265
 C         1.969795        -1.338280         0.402611
 H         3.269910         1.415883         0.714678
 H         3.539929         0.594224        -0.778391
 H         2.447734         1.973136        -0.847958
 H        -0.193201         0.313880        -1.256203
 H         0.988460        -0.944657        -1.857261
 H        -0.530084        -1.948395         0.544774
 H        -0.075751         0.826163         1.142626
 H         2.383465        -1.070731         3.633270
 H         0.913292        -2.055019         2.959480
 H         2.455251        -1.898965        -0.439588
