19
Iteration:   436charge 0 multiplicity 1
 C         2.704221         1.186551        -0.166844
 C         1.695911         0.095189         0.028933
 C         0.516446        -0.449994        -0.910325
 C         0.301364        -1.192729         0.375819
 C         0.603615         0.071933         1.159060
 O         1.164068        -0.045503         2.513962
 C         1.809987        -1.261616         2.728040
 O         2.644193        -1.590084         1.682611
 C         1.952081        -1.454022         0.453438
 H         3.525863         1.122430         0.613881
 H         3.225988         1.035674        -1.108473
 H         2.344002         2.214603        -0.012248
 H        -0.119006         0.410881        -1.104674
 H         0.672353        -1.062335        -1.836820
 H        -0.512607        -1.934625         0.425095
 H        -0.225883         0.766740         1.250707
 H         2.280299        -1.093257         3.744584
 H         0.989680        -2.028735         2.720606
 H         2.324210        -2.187856        -0.360735
