19
Iteration:  4846
 C         2.843055         1.025695        -0.222594
 C         1.664964         0.159319         0.053518
 C         0.564160        -0.354011        -0.909758
 C         0.373812        -1.273478         0.294717
 C         0.568400         0.005960         1.202155
 O         1.002834        -0.067957         2.495201
 C         1.719039        -1.242213         2.787171
 O         2.643333        -1.542750         1.707638
 C         2.002350        -1.341702         0.483754
 H         3.316155         1.403937         0.727182
 H         3.554766         0.359105        -0.759839
 H         2.565024         1.826241        -0.945662
 H        -0.349567         0.352414        -1.172842
 H         1.178575        -0.629726        -1.806488
 H        -0.460062        -2.035750         0.496813
 H        -0.210676         0.764459         1.133276
 H         2.134306        -1.057277         3.800420
 H         0.998769        -2.080265         2.741662
 H         2.537483        -1.866995        -0.230444
