19
Iteration:   257charge 0 multiplicity 1
 C         2.741071         1.241316        -0.198555
 C         1.776911         0.102748         0.025099
 C         0.580403        -0.364250        -0.909085
 C         0.295990        -1.153253         0.349615
 C         0.631930         0.020793         1.161770
 O         0.941096        -0.186189         2.523145
 C         2.014545        -1.017913         2.805977
 O         2.482895        -1.821020         1.700545
 C         1.934971        -1.463109         0.425424
 H         3.485462         1.447832         0.543032
 H         3.183985         1.070504        -1.184205
 H         2.160047         2.157070        -0.234487
 H        -0.113378         0.472424        -1.213089
 H         0.910945        -0.974813        -1.744305
 H        -0.598418        -1.906501         0.395638
 H        -0.071706         0.845073         1.264210
 H         2.968058        -0.490313         2.935915
 H         1.744934        -1.729503         3.520746
 H         2.261210        -2.170487        -0.288147
