19
Iteration:  2988
 C         2.852645         1.148594        -0.183664
 C         1.724278         0.120553         0.014191
 C         0.559268        -0.400979        -0.891720
 C         0.336216        -1.202083         0.421192
 C         0.610103         0.102645         1.162227
 O         0.906063        -0.178745         2.574369
 C         1.812661        -1.276384         2.714077
 O         2.629151        -1.517290         1.622242
 C         1.954921        -1.408459         0.442887
 H         3.480038         1.056880         0.693487
 H         3.545781         0.841387        -0.992463
 H         2.484075         2.242180        -0.251552
 H        -0.155693         0.368959        -1.146020
 H         0.905090        -1.044740        -1.784323
 H        -0.482565        -1.842420         0.673442
 H        -0.218438         0.912755         1.117596
 H         2.450342        -1.292209         3.564641
 H         1.267968        -2.218160         2.753590
 H         2.387221        -1.877088        -0.429007
