19
Iteration:  3590
 C         2.651993         1.256755        -0.084333
 C         1.653930         0.192229         0.086489
 C         0.629292        -0.391286        -0.901732
 C         0.427986        -1.342250         0.362283
 C         0.636152        -0.008649         1.145183
 O         1.334462         0.084427         2.479611
 C         1.632956        -1.252905         2.759666
 O         2.490801        -1.758936         1.696637
 C         1.906550        -1.440850         0.365966
 H         3.603353         1.358560         0.466040
 H         2.945816         1.288440        -1.201361
 H         2.198847         2.186515        -0.125154
 H        -0.133897         0.382867        -1.282904
 H         1.114035        -1.021286        -1.632729
 H        -0.148443        -2.205427         0.524010
 H        -0.250741         0.651300         1.080340
 H         2.311052        -1.222874         3.626789
 H         0.694074        -1.916945         2.972278
 H         2.434387        -1.851127        -0.552106
