19
Iteration:  4389
 C         2.810514         1.109289        -0.206675
 C         1.698421         0.159028         0.044454
 C         0.655965        -0.420100        -0.891938
 C         0.520360        -1.278712         0.303827
 C         0.601939         0.083768         1.101590
 O         0.976904        -0.034531         2.550111
 C         1.627854        -1.215436         2.804519
 O         2.542078        -1.590494         1.703796
 C         1.974917        -1.475439         0.431931
 H         3.449916         1.362127         0.657859
 H         3.449526         0.791979        -1.104920
 H         2.338491         2.100035        -0.394726
 H        -0.280046         0.202450        -0.985921
 H         1.050371        -0.761641        -1.889304
 H        -0.232997        -2.006298         0.570085
 H        -0.068245         0.944473         1.180117
 H         2.456754        -0.866663         3.429574
 H         0.939548        -2.051694         3.111072
 H         2.342996        -2.246724        -0.193806
