19
Iteration:   695charge 0 multiplicity 1
 C         2.731665         1.160154        -0.245134
 C         1.635675         0.167395         0.005566
 C         0.544093        -0.387732        -0.913263
 C         0.385314        -1.246774         0.422276
 C         0.619213         0.063380         1.243808
 O         1.083251        -0.050217         2.505879
 C         1.850791        -1.255294         2.835981
 O         2.547513        -1.713346         1.619425
 C         1.949853        -1.359284         0.417204
 H         3.054491         1.256402         0.816196
 H         3.622927         0.825589        -0.833044
 H         2.450708         2.117927        -0.656887
 H        -0.295528         0.326418        -1.219279
 H         0.803539        -0.899694        -1.823506
 H        -0.459054        -1.903652         0.448801
 H        -0.199632         0.836455         1.293749
 H         2.842312        -0.936355         3.236222
 H         1.401448        -2.105040         3.285600
 H         2.516587        -1.989225        -0.256232
