19
Iteration:  1976charge 0 multiplicity 1
 C         2.729923         1.131176        -0.249419
 C         1.744177         0.128841         0.015088
 C         0.566690        -0.379546        -0.846300
 C         0.294445        -1.185444         0.374101
 C         0.649754         0.061740         1.272085
 O         1.032526        -0.156910         2.603806
 C         1.723078        -1.383195         2.685561
 O         2.686532        -1.449450         1.640933
 C         1.966329        -1.432124         0.401261
 H         3.469794         1.237554         0.538872
 H         3.446858         0.893006        -1.058470
 H         2.227701         2.074299        -0.424363
 H        -0.161405         0.446558        -0.954553
 H         0.874072        -0.735100        -1.839407
 H        -0.683665        -1.827563         0.497832
 H        -0.069563         0.928029         1.204262
 H         2.335770        -1.229515         3.621204
 H         1.007886        -2.208455         2.483715
 H         2.391787        -2.157386        -0.314131
