19
Iteration:  2050
 C         2.624833         1.267903        -0.122577
 C         1.741726         0.077581        -0.000047
 C         0.611360        -0.349300        -0.903552
 C         0.302747        -1.213620         0.380140
 C         0.670327         0.021291         1.180831
 O         1.204224        -0.061595         2.541666
 C         1.788155        -1.257791         2.737874
 O         2.565776        -1.646255         1.640849
 C         1.890893        -1.481739         0.399796
 H         3.277370         1.286264         0.778264
 H         3.450130         1.251903        -0.856941
 H         2.021382         2.248238        -0.049427
 H        -0.210975         0.388813        -1.140000
 H         0.825734        -1.047834        -1.820272
 H        -0.589914        -1.884544         0.383578
 H        -0.091933         0.849767         1.153544
 H         2.480749        -1.301406         3.677079
 H         1.008753        -2.083307         2.800494
 H         2.387846        -2.139708        -0.423025
