19
Iteration:  2911charge 0 multiplicity 1
 C         2.670459         1.316479        -0.087539
 C         1.724213         0.139695        -0.038060
 C         0.638889        -0.472871        -0.958820
 C         0.362104        -1.260959         0.435518
 C         0.683443         0.099848         1.173206
 O         1.223462         0.067181         2.557794
 C         1.646739        -1.387576         2.750255
 O         2.489508        -1.681464         1.658106
 C         2.021128        -1.455651         0.390541
 H         3.095949         1.279605         0.909668
 H         3.329105         1.360716        -0.894165
 H         1.945774         2.181584        -0.278170
 H        -0.218459         0.077630        -1.200409
 H         0.849262        -1.048302        -1.939265
 H        -0.434050        -1.917975         0.527025
 H        -0.189396         0.865826         1.059566
 H         2.440813        -1.429806         3.460958
 H         0.824296        -2.238479         2.824507
 H         2.427721        -2.030676        -0.408610
