19
Iteration:   883charge 0 multiplicity 1
 C         2.695484         1.148746        -0.204682
 C         1.696520         0.102733         0.097417
 C         0.569316        -0.356085        -0.914412
 C         0.415713        -1.259218         0.399064
 C         0.587367         0.043656         1.226521
 O         1.177067        -0.021215         2.465058
 C         1.773384        -1.341241         2.714354
 O         2.601917        -1.578769         1.651086
 C         1.869424        -1.367119         0.481038
 H         3.260829         1.453358         0.748341
 H         3.439160         0.780533        -0.882557
 H         2.259547         2.035361        -0.766939
 H        -0.258513         0.342355        -1.081872
 H         0.841915        -0.984276        -1.843754
 H        -0.199377        -2.194544         0.532894
 H        -0.263568         0.820421         1.233914
 H         2.409557        -1.090472         3.630720
 H         0.953461        -2.130786         2.790205
 H         2.245591        -2.069512        -0.315521
