19
Iteration:  4417charge 0 multiplicity 1
 C         2.713736         1.218056        -0.181315
 C         1.722821         0.065057         0.027888
 C         0.696258        -0.490596        -0.931849
 C         0.382908        -1.286245         0.315710
 C         0.500013         0.073123         1.155757
 O         1.197191         0.106404         2.446889
 C         1.608219        -1.280879         2.715952
 O         2.513352        -1.754833         1.788066
 C         2.064613        -1.338324         0.495963
 H         3.182186         1.522517         0.754002
 H         3.429576         1.199007        -1.018355
 H         1.985924         2.046559        -0.255325
 H         0.059030         0.416189        -1.168949
 H         1.036004        -1.033540        -1.760639
 H        -0.400608        -2.106191         0.510610
 H        -0.164796         0.970166         1.131746
 H         2.263285        -1.232490         3.666543
 H         0.707785        -1.898352         2.967873
 H         2.707134        -2.018026        -0.270570
