19
Iteration:  3257
 C         2.615672         1.319505        -0.110473
 C         1.750355         0.156143        -0.062698
 C         0.581982        -0.447166        -0.924726
 C         0.321794        -1.172720         0.425915
 C         0.718718         0.118856         1.099258
 O         1.192189        -0.069015         2.492094
 C         1.709584        -1.295860         2.757813
 O         2.579844        -1.815151         1.700861
 C         1.978213        -1.391452         0.444662
 H         3.116860         1.246586         0.856195
 H         3.239173         1.312593        -0.931886
 H         1.956969         2.175041        -0.130176
 H        -0.210996         0.208792        -1.196309
 H         0.871438        -0.988734        -1.838666
 H        -0.490409        -1.822009         0.731575
 H         0.003240         1.030583         1.152859
 H         2.240041        -1.314226         3.720372
 H         0.829406        -2.053618         2.757635
 H         2.419729        -2.085143        -0.275070
