19
Iteration:   662
 C         2.711395         1.137757        -0.174594
 C         1.653334         0.078698         0.120009
 C         0.506696        -0.365625        -0.904477
 C         0.383905        -1.291983         0.300601
 C         0.662501         0.074857         1.231805
 O         1.033001         0.052172         2.573250
 C         1.888161        -1.153151         2.797196
 O         2.582954        -1.759178         1.565891
 C         1.948158        -1.463819         0.366099
 H         3.384944         1.222936         0.679799
 H         3.309413         0.893757        -1.077830
 H         2.263716         2.119106        -0.263349
 H        -0.299772         0.421509        -0.955438
 H         0.907324        -0.797985        -1.781533
 H        -0.373533        -2.046209         0.205847
 H        -0.133514         0.852328         1.132154
 H         2.705882        -0.667511         3.397052
 H         1.312455        -1.796854         3.427151
 H         2.448545        -2.079202        -0.336792
