19
Iteration:  4457charge 0 multiplicity 1
 C         2.699143         1.350786        -0.193944
 C         1.818940         0.048029         0.006768
 C         0.688861        -0.513835        -0.934544
 C         0.401509        -1.258947         0.404571
 C         0.632711         0.119935         1.079203
 O         1.129751         0.064149         2.548356
 C         1.614039        -1.234483         2.766242
 O         2.501544        -1.716747         1.721484
 C         1.983777        -1.523072         0.454587
 H         3.062528         1.554443         0.841272
 H         3.571299         1.400979        -0.816426
 H         2.020764         2.190202        -0.413586
 H        -0.162668         0.078763        -1.167572
 H         0.994192        -1.133514        -1.872481
 H        -0.330774        -2.022705         0.421992
 H        -0.260751         0.781842         1.100336
 H         2.234089        -1.133587         3.591642
 H         0.761716        -1.927609         2.680671
 H         2.380745        -2.193100        -0.181248
