19
Iteration:  3002charge 0 multiplicity 1
 C         2.824123         1.078746        -0.205786
 C         1.720047         0.091051         0.027222
 C         0.599651        -0.349377        -0.874502
 C         0.348666        -1.188953         0.386838
 C         0.555727         0.066824         1.250485
 O         0.942262        -0.132979         2.510506
 C         1.742887        -1.367898         2.686753
 O         2.775959        -1.526406         1.672965
 C         1.911472        -1.288463         0.414459
 H         3.356078         1.081312         0.717718
 H         3.510203         0.900191        -1.139506
 H         2.375048         2.031405        -0.471842
 H        -0.246152         0.412628        -1.005266
 H         0.784893        -0.815299        -1.783484
 H        -0.330198        -2.099877         0.485898
 H        -0.223044         0.988752         1.242256
 H         2.196856        -1.009065         3.634438
 H         0.897296        -2.229719         2.806779
 H         2.195770        -2.194604        -0.153846
