19
Iteration:  2691
 C         2.787398         1.177585        -0.268866
 C         1.704675         0.167507        -0.023312
 C         0.564781        -0.376371        -0.800108
 C         0.380626        -1.252222         0.414566
 C         0.611489         0.108984         1.236254
 O         1.039383        -0.107338         2.556922
 C         1.676937        -1.414689         2.709351
 O         2.632316        -1.641474         1.651463
 C         2.022002        -1.257002         0.429157
 H         3.191028         1.478458         0.786786
 H         3.628624         0.822530        -0.912098
 H         2.480513         2.124593        -0.822261
 H        -0.212367         0.282796        -1.080492
 H         0.777812        -1.012688        -1.712314
 H        -0.403705        -1.970751         0.606245
 H        -0.293454         0.840938         0.997920
 H         2.160941        -1.496478         3.729214
 H         0.881968        -2.135753         2.622136
 H         2.503654        -1.781354        -0.415375
