19
Iteration:  2528charge 0 multiplicity 1
 C         2.740515         1.264929        -0.216387
 C         1.803328         0.082769         0.064830
 C         0.614611        -0.449963        -0.900746
 C         0.358205        -1.145414         0.423854
 C         0.644550         0.098986         1.208483
 O         1.067668        -0.107412         2.596664
 C         1.708222        -1.383771         2.667316
 O         2.598338        -1.565653         1.624743
 C         1.901833        -1.430945         0.415078
 H         3.364057         1.710371         0.658547
 H         3.255884         1.051019        -1.154856
 H         1.988561         2.033834        -0.567762
 H        -0.153825         0.284184        -1.143964
 H         0.952597        -1.195335        -1.765373
 H        -0.484564        -1.777680         0.511731
 H        -0.053346         0.974485         1.342920
 H         2.263641        -1.421907         3.652140
 H         0.955725        -2.219534         2.753541
 H         2.438332        -2.092920        -0.281375
