19
Iteration:  4376charge 0 multiplicity 1
 C         2.858217         1.095875        -0.227669
 C         1.780205         0.061535        -0.013671
 C         0.617298        -0.410163        -0.953135
 C         0.381206        -1.253568         0.379326
 C         0.601058         0.105503         1.191766
 O         0.865056        -0.080091         2.521642
 C         1.766822        -1.252185         2.796890
 O         2.560435        -1.539394         1.727547
 C         1.985305        -1.353634         0.443349
 H         3.460843         1.059619         0.707540
 H         3.598373         0.813247        -1.103865
 H         2.474334         2.135709        -0.459344
 H        -0.162147         0.407103        -1.274097
 H         0.914324        -1.021733        -1.803810
 H        -0.411294        -2.047691         0.495315
 H        -0.155539         0.847354         1.020506
 H         2.279875        -1.085257         3.780133
 H         1.135517        -2.123116         3.030948
 H         2.602734        -1.974121        -0.285744
