19
Iteration:  1215charge 0 multiplicity 1
 C         2.790491         1.233792        -0.118647
 C         1.651944         0.080806        -0.065290
 C         0.411797        -0.508616        -0.953298
 C         0.289259        -1.257580         0.399767
 C         0.644790         0.061781         1.129523
 O         1.122537        -0.010447         2.613504
 C         1.743162        -1.291555         2.756974
 O         2.709464        -1.619358         1.632433
 C         2.033129        -1.348800         0.416268
 H         3.455718         1.184533         0.744702
 H         3.287389         1.413578        -1.137428
 H         2.237957         2.164766         0.033665
 H        -0.499843         0.169915        -1.034248
 H         0.865010        -0.920952        -1.851968
 H        -0.602529        -2.036175         0.567775
 H        -0.161342         0.822015         1.216165
 H         2.228706        -1.346586         3.772745
 H         0.952123        -2.051649         2.783598
 H         2.591937        -1.944052        -0.321418
