19
Iteration:  3044charge 0 multiplicity 1
 C         2.744286         1.214891        -0.233064
 C         1.734706         0.167770         0.033025
 C         0.564771        -0.382741        -0.860799
 C         0.520893        -1.278576         0.405535
 C         0.579202         0.088994         1.227239
 O         1.117059        -0.017496         2.588078
 C         1.663351        -1.357267         2.754483
 O         2.513097        -1.712639         1.671045
 C         1.969140        -1.356542         0.306739
 H         3.363588         1.567931         0.549657
 H         3.513154         0.985953        -1.049401
 H         2.304026         2.190433        -0.521480
 H        -0.318294         0.214742        -1.219835
 H         0.865499        -0.969144        -1.766049
 H        -0.047062        -2.225539         0.354871
 H        -0.205039         0.986342         1.344961
 H         2.188110        -1.329678         3.702300
 H         0.816421        -1.973936         2.812441
 H         2.555124        -1.908918        -0.451818
