19
Iteration:  2291charge 0 multiplicity 1
 C         2.712739         1.145442        -0.151828
 C         1.706047         0.140205         0.158929
 C         0.511613        -0.297443        -0.888989
 C         0.410412        -1.311871         0.282755
 C         0.595079        -0.016639         1.249009
 O         1.126642        -0.010881         2.520509
 C         1.727764        -1.255119         2.750385
 O         2.609115        -1.643824         1.652172
 C         1.981094        -1.367941         0.344210
 H         3.147475         1.498822         0.754528
 H         3.369794         0.537866        -0.817868
 H         2.297175         1.985900        -0.770759
 H        -0.257877         0.418889        -1.088091
 H         0.971198        -0.568915        -1.828749
 H        -0.186597        -2.207501         0.610997
 H        -0.244575         0.663989         1.090489
 H         2.358513        -1.301253         3.642701
 H         0.950141        -2.051641         2.701953
 H         2.522222        -1.921600        -0.493853
