19
Iteration:  2512charge 0 multiplicity 1
 C         2.762546         1.183974        -0.344768
 C         1.682423         0.132475         0.038184
 C         0.618577        -0.301228        -0.957410
 C         0.316207        -1.190172         0.349521
 C         0.613324         0.066550         1.262366
 O         1.087397        -0.194755         2.559131
 C         1.734761        -1.421027         2.801087
 O         2.672255        -1.519347         1.717411
 C         1.885873        -1.328060         0.448719
 H         3.204803         1.441446         0.627812
 H         3.612762         0.743652        -0.887145
 H         2.271674         1.999024        -0.824923
 H        -0.159075         0.398312        -1.328759
 H         1.012955        -0.787048        -1.746061
 H        -0.341529        -2.104773         0.577122
 H        -0.116147         0.834708         1.258337
 H         2.267411        -1.379929         3.723308
 H         1.018940        -2.284600         2.745586
 H         2.146200        -2.125049        -0.243611
