19
Iteration:  4098charge 0 multiplicity 1
 C         2.714791         1.332796        -0.143269
 C         1.727393         0.130474         0.013384
 C         0.691790        -0.522755        -0.987634
 C         0.368559        -1.210082         0.361748
 C         0.625181         0.043893         1.175064
 O         1.218621         0.014896         2.467492
 C         1.628216        -1.262489         2.694945
 O         2.503090        -1.737620         1.748619
 C         1.924944        -1.420205         0.513860
 H         3.303545         1.479014         0.788140
 H         3.328627         1.351474        -1.032445
 H         2.014718         2.215044        -0.355394
 H        -0.072026         0.159108        -1.213357
 H         1.057833        -1.244748        -1.808527
 H        -0.264816        -2.146679         0.575672
 H        -0.122685         0.880435         1.212561
 H         2.132128        -1.201074         3.681312
 H         0.876484        -1.987622         2.962395
 H         2.466096        -2.026066        -0.311675
