19
Iteration:   168charge 0 multiplicity 1
 C         2.901601         1.141192         0.025533
 C         1.745445         0.102700         0.017940
 C         0.557580        -0.430782        -0.935848
 C         0.249552        -1.213217         0.311949
 C         0.539886        -0.021976         1.155757
 O         0.915369        -0.253864         2.546704
 C         2.220163        -0.776424         2.691802
 O         2.392704        -1.797306         1.630624
 C         1.858226        -1.417962         0.395469
 H         3.412171         1.102964         1.002701
 H         3.566959         1.153217        -0.816304
 H         2.373133         2.122986        -0.063215
 H        -0.082640         0.405554        -1.232763
 H         0.789205        -1.006520        -1.874961
 H        -0.600644        -2.008260         0.557174
 H        -0.330410         0.693888         1.232944
 H         2.931707         0.136798         2.576562
 H         2.238873        -1.304449         3.628418
 H         2.321342        -2.082039        -0.307403
