19
Iteration:  1758charge 0 multiplicity 1
 C         2.596653         1.253832        -0.132954
 C         1.693083         0.063515         0.101157
 C         0.703756        -0.371808        -0.921920
 C         0.303674        -1.174295         0.349134
 C         0.632851         0.090553         1.161457
 O         1.183980        -0.015953         2.531487
 C         1.779798        -1.307431         2.739886
 O         2.616718        -1.700032         1.620789
 C         1.915257        -1.486483         0.427730
 H         3.425489         1.462648         0.553746
 H         2.967305         1.180312        -1.208741
 H         1.998270         2.193876        -0.168643
 H        -0.053603         0.320474        -1.297286
 H         0.977576        -1.053747        -1.727013
 H        -0.652326        -1.739313         0.592056
 H        -0.239023         0.722986         1.325228
 H         2.314222        -1.195340         3.724794
 H         1.055401        -2.063585         2.879507
 H         2.337750        -2.173391        -0.310313
