19
Iteration:  3115
 C         2.749441         1.214925        -0.130442
 C         1.700340         0.152987         0.068939
 C         0.546286        -0.411751        -0.832233
 C         0.394896        -1.308595         0.335498
 C         0.615877         0.105457         1.192368
 O         1.167430         0.021600         2.471163
 C         1.702760        -1.279098         2.733333
 O         2.528823        -1.748277         1.616467
 C         1.972756        -1.368152         0.404428
 H         3.277616         1.227049         0.878340
 H         3.521124         1.158602        -0.842935
 H         2.380661         2.239625        -0.083344
 H        -0.193813         0.267130        -1.143126
 H         0.873154        -0.901217        -1.742927
 H        -0.120818        -2.249090         0.543186
 H        -0.285273         0.734455         1.168038
 H         2.392415        -1.164456         3.588219
 H         0.879744        -2.035606         2.910041
 H         2.381560        -1.903357        -0.450828
