19
Iteration:  2738
 C         2.620674         1.308858        -0.150046
 C         1.774953         0.120977         0.138664
 C         0.676923        -0.369029        -0.875682
 C         0.321124        -1.237902         0.368419
 C         0.604826         0.049667         1.181135
 O         1.190032        -0.009970         2.486462
 C         1.685671        -1.215970         2.726999
 O         2.549061        -1.843130         1.641586
 C         2.013866        -1.456578         0.404584
 H         3.252271         1.391381         0.691464
 H         3.120708         1.301146        -1.201588
 H         1.869609         2.167361        -0.140729
 H        -0.022397         0.448293        -1.216230
 H         0.978159        -0.845075        -1.823915
 H        -0.409360        -2.035650         0.493596
 H        -0.131563         0.871967         1.046392
 H         2.344972        -1.103709         3.551348
 H         0.879488        -1.953151         2.982629
 H         2.357622        -1.985759        -0.464180
