19
Iteration:   384charge 0 multiplicity 1
 C         2.732498         1.241820        -0.427381
 C         1.671087         0.248814        -0.002146
 C         0.566979        -0.342658        -0.892499
 C         0.378163        -1.250882         0.430779
 C         0.673914         0.033126         1.201145
 O         1.063985        -0.087095         2.567417
 C         1.758832        -1.287196         2.852205
 O         2.540331        -1.817364         1.728785
 C         2.004012        -1.337712         0.425288
 H         3.609184         1.352643         0.294812
 H         3.186404         1.021972        -1.384516
 H         2.268174         2.259343        -0.674459
 H        -0.259966         0.282571        -1.190934
 H         1.058888        -0.796707        -1.838425
 H        -0.404118        -1.912822         0.679195
 H        -0.211639         0.785505         1.186076
 H         2.386619        -0.989059         3.717422
 H         1.267409        -2.182132         3.328967
 H         2.435851        -2.003912        -0.405695
