19
Iteration:  2670
 C         2.837531         1.087657        -0.226617
 C         1.630712         0.162477         0.199283
 C         0.517631        -0.317100        -0.852644
 C         0.483726        -1.272566         0.365491
 C         0.549510         0.042593         1.253684
 O         1.051478        -0.092031         2.565612
 C         1.637963        -1.300156         2.675508
 O         2.670853        -1.543030         1.597270
 C         1.959667        -1.375223         0.391508
 H         3.623126         1.534197         0.491635
 H         3.518317         0.558840        -0.952281
 H         2.681028         1.958668        -0.963103
 H        -0.284291         0.293701        -1.152148
 H         1.025841        -0.717525        -1.806718
 H        -0.157098        -2.105208         0.537224
 H        -0.486147         0.727268         1.237965
 H         2.167187        -1.361151         3.685667
 H         0.938162        -2.156072         2.591260
 H         2.448172        -1.883290        -0.448348
