19
Iteration:  4789charge 0 multiplicity 1
 C         2.630388         1.256956        -0.141073
 C         1.782294         0.056622        -0.047849
 C         0.644432        -0.486725        -0.983384
 C         0.419284        -1.214784         0.308372
 C         0.609021         0.087095         1.126191
 O         1.197880         0.046534         2.458725
 C         1.620247        -1.286781         2.851196
 O         2.558654        -1.713138         1.757790
 C         1.948814        -1.421236         0.529672
 H         3.458595         1.379935         0.567353
 H         3.128873         1.223347        -1.155271
 H         2.102406         2.254523        -0.133598
 H        -0.032749         0.451561        -1.181606
 H         0.862126        -1.017541        -1.894810
 H        -0.357701        -2.028959         0.470908
 H        -0.137972         0.916964         1.177789
 H         2.188427        -1.272865         3.861517
 H         0.800157        -2.011260         2.746455
 H         2.469505        -2.110247        -0.145547
