19
Iteration:  3144charge 0 multiplicity 1
 C         2.794179         1.080783        -0.145851
 C         1.638103         0.159920         0.050180
 C         0.550834        -0.333368        -0.885065
 C         0.295944        -1.261668         0.320419
 C         0.588672         0.064591         1.194112
 O         1.071287        -0.051910         2.559732
 C         1.718236        -1.306317         2.753304
 O         2.690272        -1.574813         1.617325
 C         2.005543        -1.388610         0.402242
 H         3.343630         1.013749         0.813986
 H         3.567987         0.800065        -0.910314
 H         2.739283         2.123795        -0.361380
 H        -0.317379         0.416043        -1.107655
 H         0.833849        -0.853392        -1.797984
 H        -0.407951        -2.100943         0.491434
 H        -0.300682         0.812175         1.285688
 H         2.280294        -1.257473         3.701123
 H         0.996279        -2.122346         2.712388
 H         2.416940        -1.967412        -0.438459
