19
Iteration:  2542
 C         2.632537         1.263647        -0.203665
 C         1.721113         0.108928         0.031132
 C         0.613848        -0.414625        -0.823824
 C         0.362863        -1.253799         0.445523
 C         0.738509         0.135646         1.203302
 O         1.051254        -0.022728         2.570258
 C         1.668611        -1.311439         2.664628
 O         2.587595        -1.732712         1.623728
 C         2.041604        -1.402499         0.387816
 H         3.263538         1.197478         0.640217
 H         3.427223         1.224041        -1.021882
 H         2.233412         2.321292        -0.144932
 H        -0.087024         0.362013        -1.249811
 H         0.933932        -1.051442        -1.719173
 H        -0.397941        -2.009954         0.721551
 H        -0.045316         0.909697         0.978677
 H         2.289685        -1.300214         3.600415
 H         0.862051        -2.011487         2.615399
 H         2.385377        -2.051059        -0.485904
