19
Iteration:   424charge 0 multiplicity 1
 C         2.698344         1.216016        -0.282233
 C         1.675453         0.089546         0.065487
 C         0.597505        -0.300905        -0.893565
 C         0.365661        -1.280214         0.389849
 C         0.608548         0.004128         1.211745
 O         1.083794         0.009950         2.562361
 C         1.750356        -1.213880         2.822395
 O         2.639574        -1.681368         1.642478
 C         1.931658        -1.472579         0.379005
 H         3.527017         0.983964         0.421929
 H         3.050538         1.073659        -1.328226
 H         2.355972         2.239484        -0.278112
 H        -0.250362         0.369705        -1.159271
 H         0.977969        -0.844102        -1.771268
 H        -0.482356        -1.997435         0.682964
 H        -0.038432         0.837416         1.052277
 H         2.544164        -1.309209         3.623922
 H         1.041634        -2.053014         3.004887
 H         2.603182        -2.045897        -0.341098
