19
Iteration:  1768charge 0 multiplicity 1
 C         2.688922         1.334489        -0.208388
 C         1.768549         0.082742         0.092400
 C         0.657959        -0.420713        -0.916337
 C         0.179720        -1.180727         0.402762
 C         0.589857         0.088380         1.149752
 O         1.132290        -0.075708         2.570772
 C         1.797600        -1.340270         2.728429
 O         2.657087        -1.639932         1.629318
 C         1.868038        -1.503024         0.475890
 H         3.480325         1.375676         0.528872
 H         3.157862         1.214893        -1.231230
 H         1.920246         2.170752        -0.170675
 H         0.084866         0.379442        -1.319488
 H         1.219136        -0.910958        -1.703052
 H        -0.642987        -1.977198         0.335953
 H        -0.017709         1.018184         1.072113
 H         2.580833        -1.329223         3.548264
 H         1.103769        -2.093982         2.835241
 H         2.311318        -2.114650        -0.291825
