19
Iteration:  1894
 C         2.665429         1.356625        -0.085111
 C         1.657287         0.124599         0.046700
 C         0.601209        -0.350500        -0.856457
 C         0.404924        -1.314815         0.309911
 C         0.621672         0.057118         1.188659
 O         1.208348         0.002038         2.458597
 C         1.838986        -1.206906         2.767548
 O         2.495375        -1.829559         1.654792
 C         1.904780        -1.486461         0.388669
 H         3.133187         1.427988         0.927783
 H         3.295477         1.196675        -0.981042
 H         1.980253         2.212350        -0.199980
 H        -0.207535         0.369753        -1.211075
 H         0.928353        -0.961718        -1.765799
 H        -0.333077        -2.045748         0.379037
 H        -0.086592         0.906613         1.112550
 H         2.559018        -0.991642         3.500690
 H         1.147637        -1.910894         3.181040
 H         2.428884        -2.109949        -0.384770
