19
Iteration:  3850charge 0 multiplicity 1
 C         2.918309         1.137093        -0.240084
 C         1.646906         0.170753         0.052571
 C         0.525109        -0.430660        -0.929356
 C         0.441601        -1.251288         0.452399
 C         0.608285         0.083894         1.177254
 O         1.033982        -0.130948         2.543674
 C         1.695185        -1.353694         2.757217
 O         2.590485        -1.477316         1.627983
 C         1.905098        -1.343289         0.417443
 H         3.178919         1.289077         0.835242
 H         3.759063         0.586944        -0.703148
 H         2.597516         2.082830        -0.777708
 H        -0.301237         0.294259        -1.175361
 H         0.975999        -1.000526        -1.713624
 H        -0.179896        -2.163497         0.601605
 H        -0.222735         0.872947         1.286976
 H         2.363808        -1.239237         3.645724
 H         0.924170        -2.124140         2.758483
 H         2.457460        -1.997378        -0.261036
