19
Iteration:  1594charge 0 multiplicity 1
 C         2.697650         1.204519        -0.190129
 C         1.647767         0.125780         0.045931
 C         0.597023        -0.421756        -0.953689
 C         0.353996        -1.215538         0.460043
 C         0.668358         0.087441         1.201049
 O         1.139775        -0.093544         2.530346
 C         1.740360        -1.382233         2.745294
 O         2.642474        -1.530263         1.648098
 C         1.896922        -1.399768         0.408282
 H         3.450040         1.039935         0.536460
 H         2.991097         1.249778        -1.248685
 H         2.222374         2.154935         0.101754
 H        -0.182037         0.269786        -1.357304
 H         0.953995        -1.100886        -1.800526
 H        -0.311785        -2.031656         0.629546
 H        -0.131052         0.809290         1.077610
 H         2.309936        -1.247238         3.703503
 H         0.942293        -2.194722         2.766192
 H         2.453079        -1.930066        -0.368716
