19
Iteration:  2444charge 0 multiplicity 1
 C         2.658794         1.131844        -0.047632
 C         1.708547         0.104576         0.062689
 C         0.483938        -0.413357        -1.012820
 C         0.314371        -1.176761         0.297232
 C         0.647109         0.101046         1.175868
 O         1.184946        -0.083153         2.524819
 C         1.762232        -1.313275         2.760128
 O         2.676864        -1.612124         1.683995
 C         1.915141        -1.373056         0.431452
 H         3.265533         1.264998         0.827573
 H         3.534173         1.091271        -0.755546
 H         2.046765         2.052700        -0.339936
 H        -0.192896         0.344310        -1.398881
 H         0.895308        -0.941094        -1.881525
 H        -0.388732        -2.060271         0.516589
 H        -0.065076         0.996313         1.107370
 H         2.389541        -1.210753         3.731282
 H         1.041975        -2.145796         2.835444
 H         2.242388        -1.983652        -0.490423
