19
Iteration:  4455charge 0 multiplicity 1
 C         2.701712         1.359560        -0.185027
 C         1.803212         0.080431        -0.008261
 C         0.701135        -0.526326        -0.930804
 C         0.380475        -1.267851         0.413735
 C         0.644395         0.114784         1.097653
 O         1.135720         0.073871         2.543360
 C         1.611078        -1.249358         2.747547
 O         2.499795        -1.713018         1.735816
 C         1.984574        -1.539833         0.454765
 H         3.060078         1.524139         0.878700
 H         3.618292         1.466243        -0.868174
 H         2.002552         2.206935        -0.441826
 H        -0.168492         0.102640        -1.276189
 H         1.005978        -1.126255        -1.874552
 H        -0.323493        -2.045184         0.469446
 H        -0.223862         0.797515         1.041534
 H         2.261468        -1.152276         3.567801
 H         0.726044        -1.919921         2.704287
 H         2.393326        -2.268972        -0.244756
