19
Iteration:  4552
 C         2.849971         1.123697        -0.145050
 C         1.788458        -0.002671         0.018911
 C         0.539939        -0.421561        -0.969154
 C         0.352236        -1.267264         0.371802
 C         0.539319         0.053492         1.170880
 O         0.998830        -0.020307         2.482237
 C         1.693743        -1.295964         2.749604
 O         2.644411        -1.468629         1.789406
 C         1.965145        -1.376433         0.401420
 H         3.645925         1.110682         0.640020
 H         3.368160         0.844426        -1.108555
 H         2.373899         2.128222        -0.147900
 H        -0.135961         0.393172        -1.293355
 H         0.970283        -1.032739        -1.781318
 H        -0.392572        -2.015637         0.649293
 H        -0.169542         0.859036         1.062648
 H         2.174094        -1.144917         3.675360
 H         0.922236        -2.010248         2.622981
 H         2.637774        -2.047419        -0.348254
