19
Iteration:  3171
 C         2.809697         1.089206        -0.184192
 C         1.721596         0.085722         0.088977
 C         0.645380        -0.297273        -0.918501
 C         0.295664        -1.194050         0.413005
 C         0.631573         0.067391         1.205114
 O         0.981146        -0.128279         2.605866
 C         1.758390        -1.339687         2.746807
 O         2.607920        -1.443642         1.544317
 C         1.938189        -1.452696         0.374489
 H         3.521668         1.331482         0.640687
 H         3.386074         0.769383        -1.039577
 H         2.429326         2.111984        -0.518081
 H        -0.157121         0.319989        -1.024115
 H         0.867524        -1.019399        -1.752516
 H        -0.394319        -2.003260         0.648536
 H        -0.078153         0.849091         1.306357
 H         2.370247        -1.299695         3.636351
 H         1.118627        -2.211663         2.857681
 H         2.336240        -2.177691        -0.373153
