19
Iteration:  1194
 C         2.716925         1.204741        -0.137815
 C         1.681405         0.077570         0.040496
 C         0.547749        -0.508402        -0.928503
 C         0.371453        -1.170793         0.462307
 C         0.666211         0.109380         1.181037
 O         1.017809        -0.117800         2.547910
 C         1.818601        -1.269612         2.699795
 O         2.650850        -1.520628         1.606094
 C         1.933543        -1.416473         0.373595
 H         3.538376         0.936271         0.557443
 H         3.053379         1.294795        -1.219086
 H         2.427853         2.182583         0.230209
 H        -0.246987         0.243788        -1.281325
 H         0.779008        -1.278428        -1.658338
 H        -0.392535        -2.011783         0.719217
 H        -0.038995         0.938172         1.138121
 H         2.477852        -1.118210         3.620706
 H         1.151212        -2.144273         2.996823
 H         2.157340        -2.124903        -0.367741
