19
Iteration:  2981
 C         2.877772         1.181581        -0.114601
 C         1.673783         0.109716         0.043945
 C         0.560736        -0.402838        -0.916254
 C         0.391118        -1.222250         0.384159
 C         0.631417         0.091309         1.165866
 O         0.947567        -0.166649         2.597583
 C         1.790142        -1.276399         2.754081
 O         2.587835        -1.508887         1.613046
 C         1.948030        -1.415392         0.352166
 H         3.574294         1.057626         0.711987
 H         3.279076         0.868569        -1.147240
 H         2.479647         2.098918        -0.413262
 H        -0.312654         0.206107        -1.330028
 H         0.908710        -1.067024        -1.626924
 H        -0.563721        -1.754128         0.724365
 H        -0.099855         0.960396         1.089981
 H         2.584354        -1.082970         3.560844
 H         1.076183        -2.245101         3.004308
 H         2.461869        -2.003853        -0.480038
