19
Iteration:  3601charge 0 multiplicity 1
 C         2.609163         1.264224        -0.125978
 C         1.704423         0.077634         0.144671
 C         0.650439        -0.414529        -0.879214
 C         0.380864        -1.336478         0.295858
 C         0.607799         0.068803         1.164435
 O         1.286825         0.079318         2.493681
 C         1.676225        -1.215912         2.744451
 O         2.547414        -1.736037         1.645395
 C         1.920077        -1.412950         0.400331
 H         3.385457         1.151794         0.688069
 H         3.186865         1.044229        -1.040446
 H         2.171534         2.186895         0.029532
 H        -0.236544         0.275576        -1.121101
 H         1.041903        -0.861413        -1.801378
 H        -0.351295        -2.096041         0.255558
 H        -0.172620         0.851937         1.151670
 H         2.340021        -1.303215         3.615077
 H         0.757600        -1.892981         2.769237
 H         2.382335        -2.200647        -0.212456
