19
Iteration:  4682
 C         2.882857         1.046849        -0.237485
 C         1.667396         0.172151        -0.034391
 C         0.605688        -0.406743        -0.915818
 C         0.427525        -1.235055         0.386337
 C         0.546768        -0.022879         1.154626
 O         0.966511        -0.031495         2.599692
 C         1.690254        -1.271091         2.755758
 O         2.609017        -1.502609         1.692709
 C         1.997467        -1.317402         0.405635
 H         3.183278         1.141308         0.784603
 H         3.655191         0.464079        -0.708397
 H         2.759039         1.938383        -0.771620
 H        -0.209398         0.305697        -1.083400
 H         0.779623        -0.983773        -1.790183
 H        -0.244757        -2.137664         0.514965
 H        -0.222633         0.734387         1.168515
 H         2.153502        -1.244494         3.755384
 H         1.076305        -2.148601         2.911712
 H         2.476719        -2.085402        -0.142166
