19
Iteration:  1849charge 0 multiplicity 1
 C         2.665147         1.131979        -0.161315
 C         1.664313         0.157317         0.006643
 C         0.609817        -0.385735        -0.919248
 C         0.328621        -1.245592         0.429321
 C         0.685672         0.063782         1.255125
 O         1.071680        -0.097123         2.548071
 C         1.760287        -1.313607         2.707301
 O         2.654820        -1.574282         1.616795
 C         1.936478        -1.355858         0.415126
 H         3.206639         1.255744         0.845320
 H         3.378674         0.696070        -0.951597
 H         2.453570         2.126602        -0.479816
 H        -0.219675         0.374628        -1.205503
 H         0.961649        -0.793458        -1.900836
 H        -0.363287        -2.039973         0.640284
 H        -0.134181         0.825289         1.186464
 H         2.310381        -1.319271         3.607291
 H         0.996401        -2.061229         2.757866
 H         2.417620        -1.931290        -0.436801
