19
Iteration:   958charge 0 multiplicity 1
 C         2.717145         1.133012        -0.223184
 C         1.644978         0.135881         0.048578
 C         0.517255        -0.365511        -0.946513
 C         0.424028        -1.317506         0.313029
 C         0.526011        -0.010864         1.280701
 O         1.230723         0.067720         2.606445
 C         1.697188        -1.236804         2.763933
 O         2.622997        -1.705267         1.708571
 C         1.989499        -1.339643         0.312310
 H         3.518273         1.428576         0.534828
 H         3.134663         1.034511        -1.216160
 H         2.222479         2.122159        -0.435915
 H        -0.256748         0.362072        -0.983177
 H         0.732572        -0.906315        -1.838485
 H        -0.195627        -2.130921         0.325876
 H        -0.364404         0.706710         1.456080
 H         2.278508        -1.428126         3.730007
 H         0.850200        -2.000948         2.721186
 H         2.667984        -1.951871        -0.421242
