19
Iteration:  1534charge 0 multiplicity 1
 C         2.579197         1.151787        -0.142659
 C         1.626228         0.069828         0.130857
 C         0.549854        -0.334422        -0.907688
 C         0.411869        -1.289593         0.236851
 C         0.592751         0.032710         1.234539
 O         1.277936         0.013989         2.495667
 C         1.770824        -1.218179         2.763589
 O         2.510081        -1.696183         1.653067
 C         2.036538        -1.368240         0.394103
 H         3.251724         1.337340         0.745824
 H         3.351489         0.833477        -0.843663
 H         2.147846         2.069238        -0.459569
 H        -0.291030         0.351642        -1.002707
 H         0.818120        -0.837973        -1.776984
 H        -0.238600        -2.234046         0.130001
 H        -0.292664         0.650491         1.385308
 H         2.444892        -1.064667         3.619437
 H         0.988389        -2.016861         3.087498
 H         2.841099        -1.684206        -0.288071
