19
Iteration:  4416charge 0 multiplicity 1
 C         2.721532         1.219853        -0.186823
 C         1.719398         0.057285         0.027879
 C         0.690484        -0.474442        -0.927523
 C         0.385060        -1.297289         0.313706
 C         0.503010         0.062831         1.161214
 O         1.183927         0.114244         2.445989
 C         1.620199        -1.281739         2.723335
 O         2.511665        -1.754331         1.787696
 C         2.064097        -1.341058         0.486774
 H         3.203218         1.532644         0.728829
 H         3.406154         1.183176        -0.984052
 H         2.026365         2.051958        -0.259332
 H         0.100720         0.402663        -1.168392
 H         1.038789        -1.040786        -1.760133
 H        -0.396949        -2.089085         0.507883
 H        -0.164370         0.968170         1.164468
 H         2.259469        -1.207984         3.647219
 H         0.687223        -1.904012         2.927344
 H         2.700950        -1.987553        -0.232160
