19
Iteration:  4348
 C         2.889943         1.012657        -0.224273
 C         1.697046         0.074311         0.078419
 C         0.649623        -0.398020        -0.970323
 C         0.345179        -1.252910         0.363640
 C         0.523829         0.162245         1.201649
 O         0.913587        -0.103334         2.507130
 C         1.738742        -1.304655         2.764484
 O         2.650770        -1.401964         1.686462
 C         1.966073        -1.406987         0.499748
 H         3.558684         1.009823         0.628813
 H         3.378960         0.512306        -0.969762
 H         2.683567         2.055209        -0.346564
 H        -0.119781         0.173681        -1.294158
 H         1.220010        -0.914278        -1.799221
 H        -0.489308        -1.939574         0.325721
 H        -0.251750         0.991949         1.081697
 H         2.172111        -1.148966         3.739425
 H         1.061656        -2.207410         2.686876
 H         2.459644        -2.062429        -0.212485
