19
Iteration:  3125
 C         2.806376         1.173989        -0.073704
 C         1.681744         0.165283         0.094389
 C         0.473910        -0.392867        -0.903624
 C         0.471375        -1.276019         0.397254
 C         0.581452         0.059272         1.166156
 O         1.140398        -0.028821         2.412123
 C         1.726173        -1.309067         2.670067
 O         2.566789        -1.712573         1.664563
 C         1.936400        -1.299405         0.422273
 H         3.506086         1.154908         0.816809
 H         3.389018         0.923605        -0.972211
 H         2.371445         2.116201        -0.314028
 H        -0.299492         0.347486        -0.969321
 H         0.850392        -0.859545        -1.768273
 H        -0.290361        -2.031504         0.670342
 H        -0.329527         0.773871         1.272910
 H         2.328159        -1.104892         3.569679
 H         0.953449        -1.999138         2.956099
 H         2.512340        -1.897893        -0.274607
