19
Iteration:  3682charge 0 multiplicity 1
 C         2.827306         1.036706        -0.268681
 C         1.644602         0.199837         0.140623
 C         0.575896        -0.304423        -0.884783
 C         0.395527        -1.338927         0.331349
 C         0.546722         0.089474         1.226479
 O         1.042308        -0.111962         2.564759
 C         1.743612        -1.283531         2.676609
 O         2.671218        -1.544538         1.669033
 C         1.965160        -1.329058         0.469871
 H         3.239571         1.313459         0.707497
 H         3.478300         0.371218        -0.898959
 H         2.428684         1.816996        -1.027044
 H        -0.334189         0.287877        -0.977511
 H         0.925166        -0.740335        -1.871584
 H        -0.464659        -2.059349         0.159640
 H        -0.314497         0.720541         1.223102
 H         2.220759        -1.166570         3.677340
 H         0.899431        -2.053872         2.857162
 H         2.557383        -1.805417        -0.386728
