19
Iteration:  4468
 C         2.665771         1.229529        -0.163036
 C         1.817134         0.041009         0.035369
 C         0.643866        -0.449961        -0.925661
 C         0.480204        -1.262270         0.316889
 C         0.634635         0.065911         1.106451
 O         1.077071         0.036137         2.491435
 C         1.639611        -1.194436         2.804833
 O         2.538817        -1.726455         1.714015
 C         1.969866        -1.395604         0.480769
 H         3.177847         1.623953         0.743151
 H         3.389107         0.978932        -0.925649
 H         2.021330         2.029928        -0.594639
 H        -0.072072         0.313872        -1.114451
 H         0.918740        -1.106394        -1.851676
 H        -0.325753        -1.907825         0.543989
 H        -0.105478         0.906655         1.036626
 H         2.086870        -1.244978         3.742608
 H         0.876682        -1.986720         2.994614
 H         2.404130        -1.958306        -0.234559
