19
Iteration:   991charge 0 multiplicity 1
 C         2.713550         1.113007        -0.098144
 C         1.682587         0.120115         0.038619
 C         0.520420        -0.464308        -0.864955
 C         0.374457        -1.206244         0.515291
 C         0.656393         0.067999         1.147111
 O         1.108776        -0.091092         2.496986
 C         1.723789        -1.258836         2.692285
 O         2.617835        -1.552473         1.619784
 C         2.002818        -1.348227         0.327732
 H         3.653472         1.093486         0.556662
 H         3.039336         0.971602        -1.115700
 H         2.199297         2.121004         0.001539
 H        -0.229783         0.268517        -1.099346
 H         0.657990        -1.078119        -1.736030
 H        -0.339755        -1.890813         0.791605
 H        -0.072519         0.951569         1.172893
 H         2.363212        -1.143018         3.643385
 H         1.011986        -2.205009         2.830343
 H         2.440651        -2.055057        -0.516991
