19
Iteration:  1596
 C         2.701743         1.198196        -0.199876
 C         1.644545         0.136464         0.046585
 C         0.598180        -0.408713        -0.951158
 C         0.374265        -1.226628         0.453720
 C         0.634036         0.077680         1.218086
 O         1.145921        -0.094726         2.537733
 C         1.733395        -1.368829         2.731402
 O         2.640460        -1.525841         1.654545
 C         1.897945        -1.417480         0.417311
 H         3.509574         1.037177         0.549007
 H         3.022451         1.265602        -1.304479
 H         2.249407         2.141421         0.062734
 H        -0.179823         0.326099        -1.359939
 H         0.929196        -1.088821        -1.784136
 H        -0.291219        -2.015511         0.544759
 H        -0.176579         0.831100         1.095525
 H         2.337382        -1.270049         3.672212
 H         0.996208        -2.166344         2.748998
 H         2.449857        -2.000528        -0.395983
