19
Iteration:  2403charge 0 multiplicity 1
 C         2.677845         1.311037        -0.021323
 C         1.719962         0.100146         0.068867
 C         0.549864        -0.420263        -0.892369
 C         0.461069        -1.342662         0.415792
 C         0.627477         0.087125         1.177301
 O         1.175094         0.083625         2.479075
 C         1.730785        -1.225304         2.722150
 O         2.491107        -1.846463         1.598723
 C         1.980524        -1.404646         0.319139
 H         3.548377         1.434013         0.684523
 H         3.159857         1.323379        -1.076643
 H         2.108595         2.244251         0.119209
 H        -0.306492         0.275695        -1.153169
 H         0.846447        -1.006969        -1.727154
 H        -0.166210        -2.302520         0.621020
 H        -0.185603         0.813457         1.266170
 H         2.424093        -1.050261         3.595252
 H         0.811072        -1.849098         2.869865
 H         2.566684        -1.930776        -0.428852
