19
Iteration:  1978
 C         2.736729         1.132730        -0.254660
 C         1.725062         0.124081         0.023615
 C         0.582844        -0.360989        -0.864780
 C         0.303775        -1.206244         0.366639
 C         0.636716         0.051548         1.256774
 O         1.038917        -0.156827         2.608278
 C         1.738828        -1.377510         2.688773
 O         2.675664        -1.444970         1.645050
 C         1.943632        -1.420566         0.409009
 H         3.532895         1.299249         0.505948
 H         3.444416         0.851807        -1.076273
 H         2.267331         2.062351        -0.437324
 H        -0.136482         0.451910        -0.905591
 H         0.835704        -0.727830        -1.802558
 H        -0.645459        -1.798885         0.532700
 H        -0.071823         0.919144         1.291329
 H         2.327070        -1.310500         3.580871
 H         1.020549        -2.235926         2.495158
 H         2.417228        -2.181412        -0.243815
