19
Iteration:  2118charge 0 multiplicity 1
 C         2.750524         1.184964        -0.205970
 C         1.653951         0.163562         0.033626
 C         0.484376        -0.341275        -0.890714
 C         0.414123        -1.244641         0.272658
 C         0.652964         0.049106         1.266358
 O         1.099553        -0.088738         2.568570
 C         1.777451        -1.281090         2.764042
 O         2.576894        -1.712237         1.656355
 C         1.995420        -1.305816         0.400104
 H         3.230987         1.276468         0.769200
 H         3.435945         0.697548        -0.927860
 H         2.216697         2.070013        -0.502478
 H        -0.432012         0.319419        -1.148590
 H         0.885600        -0.915561        -1.759725
 H        -0.243139        -2.166098         0.303010
 H        -0.132105         0.806510         1.280047
 H         2.415986        -1.097691         3.625242
 H         0.971151        -2.088946         2.968928
 H         2.518123        -1.767613        -0.392062
