19
Iteration:   154charge 0 multiplicity 1
 C         2.807796         1.145180        -0.053187
 C         1.692525         0.082218         0.031239
 C         0.589198        -0.363695        -0.943160
 C         0.374623        -1.249865         0.400909
 C         0.524750         0.079320         1.198245
 O         0.891829        -0.180659         2.499030
 C         2.118897        -0.959149         2.636761
 O         2.491072        -1.775623         1.649785
 C         1.832803        -1.406278         0.414598
 H         3.407765         1.030893         0.878137
 H         3.512362         0.895978        -0.800143
 H         2.490637         2.194751        -0.054787
 H        -0.295197         0.177589        -1.236299
 H         1.083828        -1.000590        -1.733714
 H        -0.296609        -2.074844         0.508877
 H        -0.117933         1.021650         1.146325
 H         2.989431        -0.297017         2.885556
 H         2.000853        -1.471188         3.649660
 H         2.228019        -2.104334        -0.359609
