19
Iteration:  3396charge 0 multiplicity 1
 C         2.667423         1.241931        -0.175691
 C         1.715291         0.141120         0.103668
 C         0.535423        -0.392606        -0.953420
 C         0.469269        -1.294971         0.381652
 C         0.617244         0.054478         1.161014
 O         1.253101         0.019292         2.536984
 C         1.684228        -1.277474         2.754912
 O         2.485088        -1.798040         1.643137
 C         1.966561        -1.341775         0.456849
 H         3.620620         1.350887         0.482645
 H         3.079063         1.276516        -1.220939
 H         2.202341         2.216163        -0.144750
 H        -0.265941         0.379654        -1.245818
 H         0.924318        -0.845479        -1.867046
 H        -0.272011        -2.039185         0.329836
 H        -0.222932         0.737035         1.244832
 H         2.323621        -1.331655         3.643029
 H         0.810843        -1.992931         2.918725
 H         2.561528        -1.848389        -0.272717
