19
Iteration:  4673
 C         2.902455         1.069165        -0.210742
 C         1.668754         0.161528        -0.037139
 C         0.521587        -0.439833        -0.939348
 C         0.473382        -1.286767         0.327958
 C         0.534988         0.081260         1.176982
 O         1.015499        -0.087705         2.537541
 C         1.691082        -1.249791         2.804880
 O         2.591847        -1.526986         1.711248
 C         1.988474        -1.326943         0.487125
 H         3.306362         1.429893         0.757689
 H         3.647692         0.463322        -0.721628
 H         2.675810         1.979939        -0.726088
 H        -0.348575         0.114876        -1.050835
 H         0.887561        -0.861715        -1.886882
 H        -0.289449        -1.975982         0.660127
 H        -0.208625         0.863185         1.124242
 H         2.248008        -1.293435         3.707765
 H         0.861833        -2.051952         2.697536
 H         2.564883        -1.914872        -0.362916
