19
Iteration:  2800charge 0 multiplicity 1
 C         2.710019         1.082382        -0.096608
 C         1.675165         0.064506         0.119608
 C         0.608409        -0.363940        -0.863326
 C         0.342825        -1.242911         0.361809
 C         0.599121         0.138046         1.133287
 O         1.019701        -0.033418         2.528288
 C         1.773243        -1.315486         2.611279
 O         2.703287        -1.569908         1.637921
 C         1.949717        -1.381641         0.390427
 H         3.532540         1.030869         0.742458
 H         3.312435         0.995276        -0.963255
 H         2.234478         2.065102         0.141155
 H        -0.161447         0.338304        -0.904593
 H         0.902208        -1.016627        -1.735847
 H        -0.363872        -2.010435         0.607632
 H        -0.214302         0.978620         1.126797
 H         2.365638        -1.265792         3.592014
 H         1.007291        -2.111679         2.685149
 H         2.351305        -2.101150        -0.338865
