19
Iteration:  1843charge 0 multiplicity 1
 C         2.738302         1.122833        -0.199579
 C         1.656555         0.155587         0.081150
 C         0.590091        -0.331062        -0.914887
 C         0.334857        -1.284267         0.388324
 C         0.572243         0.006124         1.227704
 O         1.123555        -0.061609         2.563326
 C         1.734325        -1.331091         2.709641
 O         2.655694        -1.524369         1.615459
 C         1.953504        -1.363046         0.405487
 H         3.261022         1.169303         0.714359
 H         3.310420         0.569278        -0.906352
 H         2.347146         2.132718        -0.537679
 H        -0.184183         0.353170        -1.095770
 H         1.025316        -0.752723        -1.828351
 H        -0.416168        -2.046198         0.745821
 H        -0.155034         0.803273         1.230493
 H         2.371343        -1.380030         3.643448
 H         0.959668        -2.178288         2.593819
 H         2.490556        -1.973377        -0.299678
