19
Iteration:   611charge 0 multiplicity 1
 C         2.727931         1.160957        -0.121169
 C         1.662556         0.130283        -0.007108
 C         0.526294        -0.478349        -0.910794
 C         0.369422        -1.268928         0.514656
 C         0.590373         0.090234         1.146793
 O         1.145241         0.028705         2.556713
 C         1.774718        -1.250825         2.633610
 O         2.646540        -1.663268         1.644140
 C         1.962338        -1.344167         0.367942
 H         3.472792         0.886206         0.712064
 H         3.248688         1.109988        -1.040236
 H         2.384902         2.180459         0.177242
 H        -0.433298         0.039239        -1.068851
 H         0.702252        -1.183089        -1.836911
 H        -0.509643        -2.084997         0.732576
 H        -0.032040         1.019218         1.124345
 H         2.194463        -1.344507         3.684986
 H         0.870662        -1.882487         2.647744
 H         2.510166        -2.035808        -0.342400
