19
Iteration:  1526
 C         2.646208         1.132256        -0.148042
 C         1.662711         0.127330         0.073434
 C         0.503491        -0.336387        -0.936915
 C         0.440006        -1.315477         0.192766
 C         0.559902         0.055259         1.304072
 O         1.217410         0.041267         2.500521
 C         1.801840        -1.273443         2.843953
 O         2.566365        -1.741435         1.692595
 C         1.986430        -1.325992         0.352277
 H         3.097429         1.466079         0.755325
 H         3.311753         0.761391        -0.856755
 H         2.206547         2.060076        -0.652999
 H        -0.273772         0.375284        -1.163065
 H         0.778087        -0.888287        -1.918172
 H        -0.261358        -2.189665         0.463178
 H        -0.381564         0.560100         1.390948
 H         2.569827        -1.133776         3.570479
 H         0.942421        -2.026838         3.034926
 H         2.702096        -1.528843        -0.397044
