19
Iteration:  1235
 C         2.622217         1.175255        -0.130606
 C         1.700486         0.150547         0.077303
 C         0.556521        -0.368321        -0.809533
 C         0.489201        -1.310931         0.408316
 C         0.594143         0.021288         1.201265
 O         1.208019         0.008085         2.430980
 C         1.718737        -1.289330         2.676024
 O         2.588555        -1.602707         1.631707
 C         1.907464        -1.409400         0.399618
 H         3.331674         1.168126         0.673350
 H         3.181667         0.850581        -1.067878
 H         2.250304         2.210107        -0.327194
 H        -0.288274         0.305686        -0.994035
 H         0.954729        -0.950540        -1.683963
 H        -0.230385        -2.178683         0.607381
 H        -0.334398         0.718224         1.274515
 H         2.232479        -1.199252         3.629013
 H         0.916620        -1.995227         2.770074
 H         2.614717        -2.023521        -0.262391
