19
Iteration:  2930
 C         2.685921         1.291458        -0.062336
 C         1.680914         0.062782         0.107364
 C         0.561710        -0.406132        -0.877568
 C         0.430865        -1.254670         0.330863
 C         0.644196         0.046338         1.161449
 O         1.191173         0.003505         2.409287
 C         1.709524        -1.211459         2.726608
 O         2.570594        -1.766570         1.677959
 C         1.930682        -1.399702         0.415995
 H         3.360662         1.212076         0.883212
 H         3.224718         1.166482        -0.973225
 H         2.150117         2.276802        -0.139310
 H        -0.213631         0.326614        -1.181060
 H         0.996998        -0.881686        -1.846998
 H        -0.209598        -2.137461         0.529581
 H        -0.129722         0.746235         1.164400
 H         2.220029        -1.174999         3.734930
 H         0.784453        -1.824871         2.721267
 H         2.341696        -2.030654        -0.425274
