19
Iteration:  3692charge 0 multiplicity 1
 C         2.800802         1.104283        -0.262162
 C         1.705118         0.148593         0.139005
 C         0.507475        -0.346664        -0.861792
 C         0.398742        -1.306934         0.326937
 C         0.590568         0.077810         1.206330
 O         1.028050        -0.047304         2.508819
 C         1.750826        -1.359888         2.731606
 O         2.607632        -1.568868         1.714225
 C         1.964962        -1.308332         0.409297
 H         3.498493         1.574256         0.474987
 H         3.597441         0.537912        -0.816898
 H         2.532104         2.081241        -0.746433
 H        -0.358056         0.313850        -1.150774
 H         0.912458        -0.860924        -1.777927
 H        -0.277300        -2.154324         0.630502
 H        -0.255953         0.722733         1.187143
 H         2.382121        -1.265994         3.652192
 H         1.060163        -2.259161         2.621181
 H         2.545744        -1.915805        -0.413711
