19
Iteration:  1303charge 0 multiplicity 1
 C         2.666444         1.234344        -0.248382
 C         1.756462         0.067534         0.082437
 C         0.563733        -0.395881        -0.824601
 C         0.340104        -1.206705         0.439832
 C         0.648456         0.100099         1.207131
 O         0.995372        -0.081451         2.546899
 C         1.805535        -1.294288         2.685249
 O         2.671362        -1.622095         1.621083
 C         1.959764        -1.435212         0.421929
 H         3.033300         1.819966         0.640187
 H         3.632719         0.955457        -0.819568
 H         2.109346         1.900189        -0.871158
 H        -0.163122         0.457124        -1.079148
 H         0.859787        -1.002759        -1.668265
 H        -0.417586        -2.127429         0.422330
 H        -0.167579         0.852251         1.072148
 H         2.518108        -1.234998         3.560541
 H         1.146984        -2.127491         2.803869
 H         2.330147        -2.058749        -0.412884
