19
Iteration:  2023charge 0 multiplicity 1
 C         2.765055         1.203869        -0.238221
 C         1.698896         0.219333         0.113796
 C         0.498274        -0.363193        -0.884566
 C         0.440989        -1.271286         0.399469
 C         0.589153         0.091650         1.165130
 O         1.016665        -0.087513         2.592159
 C         1.838612        -1.288363         2.717750
 O         2.548355        -1.753407         1.595064
 C         2.003902        -1.316263         0.453749
 H         3.543688         1.199105         0.596980
 H         3.348156         0.668621        -1.026275
 H         2.481802         2.213393        -0.483853
 H        -0.358305         0.278829        -0.973375
 H         0.691894        -0.866499        -1.759537
 H        -0.226960        -2.111647         0.534209
 H        -0.265953         0.742622         1.004657
 H         2.522834        -1.145447         3.468527
 H         1.093311        -2.111289         2.837490
 H         2.541499        -1.706539        -0.421397
