19
Iteration:  3815charge 0 multiplicity 1
 C         2.763225         1.087112        -0.156928
 C         1.683453         0.098787         0.104701
 C         0.598941        -0.349223        -0.910892
 C         0.342364        -1.227129         0.352330
 C         0.565160         0.092750         1.160180
 O         0.996270        -0.068549         2.522453
 C         1.741873        -1.214717         2.745357
 O         2.738444        -1.555707         1.620706
 C         1.911563        -1.520153         0.476861
 H         3.417331         1.338463         0.646036
 H         3.425896         0.894982        -0.982119
 H         2.405188         2.145849        -0.379971
 H        -0.102708         0.391615        -1.176459
 H         1.038905        -0.758713        -1.878751
 H        -0.375397        -2.065598         0.536543
 H        -0.129125         0.901630         1.185536
 H         2.316101        -1.323478         3.650101
 H         1.139008        -2.099814         2.722024
 H         2.263618        -2.029014        -0.376361
