19
Iteration:  2294charge 0 multiplicity 1
 C         2.719755         1.142971        -0.151796
 C         1.714140         0.142847         0.149723
 C         0.502826        -0.300181        -0.894350
 C         0.416313        -1.314583         0.276285
 C         0.587117        -0.023404         1.265336
 O         1.134882        -0.020147         2.521360
 C         1.696757        -1.260089         2.748287
 O         2.623141        -1.618702         1.657068
 C         1.982349        -1.380630         0.344574
 H         3.225737         1.561409         0.758204
 H         3.413360         0.606776        -0.893410
 H         2.416689         1.963514        -0.821403
 H        -0.375603         0.470353        -1.080153
 H         0.911785        -0.585132        -1.866257
 H        -0.229318        -2.242848         0.569087
 H        -0.248892         0.692170         1.158786
 H         2.327531        -1.316119         3.695623
 H         0.985202        -2.085037         2.751420
 H         2.451257        -1.908247        -0.485365
