19
Iteration:   495charge 0 multiplicity 1
 C         2.740746         1.143897        -0.119125
 C         1.595316         0.072433         0.115255
 C         0.512439        -0.334952        -0.867766
 C         0.371277        -1.362300         0.345719
 C         0.608438         0.041674         1.103351
 O         1.173056        -0.006162         2.458856
 C         1.857701        -1.177968         2.770879
 O         2.585869        -1.640576         1.656331
 C         1.891135        -1.374748         0.369567
 H         3.073810         1.297716         0.906705
 H         3.483466         0.592004        -0.697645
 H         2.430535         2.106609        -0.593385
 H        -0.175544         0.526302        -0.978207
 H         0.789168        -0.760007        -1.832106
 H        -0.170532        -2.212133         0.553436
 H        -0.229942         0.734274         1.299655
 H         2.516738        -0.998177         3.600380
 H         1.162673        -2.052428         3.110109
 H         2.486007        -1.965309        -0.338101
