19
Iteration:  2279charge 0 multiplicity 1
 C         2.650543         1.158310        -0.130002
 C         1.628563         0.129352         0.093677
 C         0.645917        -0.339363        -0.858845
 C         0.423312        -1.296551         0.374796
 C         0.594819         0.052636         1.158306
 O         1.093261         0.020712         2.542522
 C         1.829433        -1.279050         2.680354
 O         2.544296        -1.751849         1.602147
 C         1.979426        -1.336356         0.401957
 H         3.098351         1.449494         0.793200
 H         3.523716         0.852885        -0.724151
 H         2.164166         2.084596        -0.534808
 H        -0.095579         0.347930        -1.013561
 H         1.011822        -0.861058        -1.742795
 H        -0.362447        -2.033034         0.392924
 H        -0.231495         0.751790         1.189247
 H         2.453967        -1.129418         3.522438
 H         1.001330        -1.960273         3.009452
 H         2.644217        -1.858849        -0.357226
