19
Iteration:  4732
 C         2.814862         1.157674        -0.188288
 C         1.692624         0.078196        -0.033109
 C         0.615938        -0.428081        -0.965556
 C         0.378505        -1.228528         0.373196
 C         0.570854         0.061297         1.182836
 O         1.014655        -0.029482         2.454945
 C         1.747295        -1.254168         2.824512
 O         2.593931        -1.618070         1.768509
 C         1.950285        -1.408293         0.406959
 H         3.514438         1.110120         0.693647
 H         3.377292         1.263340        -1.177467
 H         2.188212         2.132940        -0.192619
 H        -0.079574         0.395936        -1.355749
 H         1.052805        -1.072410        -1.752698
 H        -0.352236        -1.980765         0.694042
 H        -0.178339         0.906834         1.234105
 H         2.255287        -1.087254         3.849403
 H         0.903220        -2.056945         2.974927
 H         2.768152        -1.973247        -0.257206
