19
Iteration:   208
 C         2.799206         1.153864        -0.155104
 C         1.742846         0.072366         0.247657
 C         0.721539        -0.244431        -0.877535
 C         0.341780        -1.278777         0.314524
 C         0.399325        -0.078101         1.192306
 O         0.900742        -0.210590         2.514730
 C         2.219434        -0.738664         2.598397
 O         2.358726        -1.885453         1.679815
 C         1.863828        -1.484556         0.433430
 H         3.626682         1.189677         0.604926
 H         3.270278         0.949291        -1.113467
 H         2.395011         2.193217        -0.128380
 H         0.106747         0.641598        -0.964447
 H         0.955488        -0.758541        -1.847682
 H        -0.449202        -1.939071         0.264260
 H        -0.481774         0.619307         1.168448
 H         2.950481        -0.120205         2.167179
 H         2.425273        -1.143458         3.657111
 H         2.407440        -1.921890        -0.463328
