19
Iteration:  1725charge 0 multiplicity 1
 C         2.751894         1.345470        -0.071969
 C         1.671514         0.238055         0.010123
 C         0.428653        -0.451514        -0.838613
 C         0.495187        -1.433661         0.295268
 C         0.651686         0.039345         1.174630
 O         1.282905         0.077274         2.467044
 C         1.685383        -1.271597         2.765932
 O         2.455090        -1.781706         1.655837
 C         2.002154        -1.396553         0.374720
 H         3.409183         1.395534         0.795252
 H         3.471660         1.108807        -0.913915
 H         2.368244         2.377368        -0.214500
 H        -0.463621         0.162741        -0.798702
 H         0.505865        -0.964689        -1.810037
 H        -0.380294        -2.040138         0.698480
 H        -0.337882         0.493179         1.130894
 H         2.394178        -1.260351         3.670006
 H         0.840905        -1.935496         2.832728
 H         2.586501        -1.885238        -0.388691
