19
Iteration:  2701
 C         2.731263         1.228605        -0.274524
 C         1.723343         0.101709         0.017446
 C         0.510693        -0.403746        -0.914886
 C         0.388761        -1.152478         0.395712
 C         0.672321         0.080359         1.166569
 O         1.090961        -0.127327         2.606608
 C         1.614460        -1.377431         2.773814
 O         2.627266        -1.641590         1.657835
 C         1.992759        -1.340061         0.394865
 H         3.197398         1.563089         0.768455
 H         3.638864         1.045043        -0.820133
 H         2.212984         2.171598        -0.630747
 H        -0.107842         0.390057        -1.229510
 H         0.943145        -1.035093        -1.720808
 H        -0.364218        -1.931945         0.529605
 H        -0.015214         0.934377         1.502925
 H         2.229561        -1.347071         3.723180
 H         0.966806        -2.216237         2.739091
 H         2.637060        -1.901776        -0.307136
