19
Iteration:   536
 C         2.697261         1.276002        -0.322174
 C         1.763018         0.168286         0.058870
 C         0.630383        -0.472987        -0.862284
 C         0.344545        -1.248378         0.402935
 C         0.700242         0.121218         1.240260
 O         0.959079        -0.129187         2.606886
 C         1.868269        -1.273867         2.783973
 O         2.534966        -1.715001         1.567551
 C         1.882299        -1.369959         0.455170
 H         3.390314         1.832225         0.453306
 H         3.403466         0.745874        -0.953488
 H         2.197572         2.132937        -0.901177
 H        -0.001156         0.286106        -1.314306
 H         1.025204        -0.932361        -1.869647
 H        -0.383230        -2.106267         0.700758
 H         0.006274         1.026608         1.210092
 H         2.651874        -0.803381         3.420777
 H         1.228856        -1.997012         3.332442
 H         2.370094        -2.072874        -0.451611
