19
Iteration:  4984
 C         2.743950         1.228557        -0.184061
 C         1.742784         0.077362         0.028036
 C         0.623704        -0.459195        -1.012913
 C         0.372411        -1.227248         0.315675
 C         0.701663         0.146399         1.174593
 O         1.050946        -0.019701         2.558393
 C         1.710051        -1.285396         2.707879
 O         2.596182        -1.660051         1.781465
 C         1.872759        -1.427298         0.469884
 H         3.543643         1.260520         0.528086
 H         3.262549         1.091978        -1.134855
 H         2.218466         2.194402        -0.247288
 H        -0.251637         0.197601        -1.272196
 H         1.055844        -1.162583        -1.857518
 H        -0.470420        -1.884497         0.537720
 H         0.030711         1.027366         1.202337
 H         2.184285        -1.196068         3.721079
 H         0.928873        -2.045546         2.751084
 H         2.371367        -2.228209        -0.156825
