19
Iteration:  2013
 C         2.811122         1.133990        -0.295081
 C         1.601557         0.219117         0.086181
 C         0.569854        -0.347187        -0.828513
 C         0.446190        -1.250113         0.315422
 C         0.562899         0.033606         1.267381
 O         1.015885        -0.119471         2.607530
 C         1.797012        -1.273716         2.719566
 O         2.581708        -1.707623         1.623687
 C         2.031300        -1.255790         0.385489
 H         3.396571         1.108527         0.679891
 H         3.198024         0.613357        -1.188144
 H         2.605238         2.143029        -0.706533
 H        -0.321629         0.250364        -0.909543
 H         0.787889        -0.795882        -1.776791
 H        -0.367188        -1.882000         0.494065
 H        -0.297695         0.731220         1.322534
 H         2.410685        -1.187931         3.565678
 H         1.017943        -2.081688         2.982945
 H         2.603193        -1.768570        -0.471489
