19
Iteration:  4255charge 0 multiplicity 1
 C         2.647772         1.385809        -0.184698
 C         1.775309         0.111190         0.051818
 C         0.762644        -0.504554        -0.998725
 C         0.376122        -1.297637         0.319668
 C         0.632623         0.148866         1.176152
 O         1.203575         0.096394         2.452091
 C         1.693741        -1.246063         2.839513
 O         2.513912        -1.839683         1.743255
 C         1.856745        -1.492815         0.473121
 H         3.114280         1.824630         0.738716
 H         3.461688         0.994968        -0.897910
 H         1.949775         2.205012        -0.380096
 H        -0.230669         0.130661        -1.128827
 H         1.375263        -0.845855        -1.786221
 H        -0.422144        -2.050211         0.131432
 H        -0.169835         0.844010         1.146131
 H         2.114717        -1.469384         3.856175
 H         0.714458        -1.845768         2.900805
 H         2.115829        -2.139617        -0.332830
