19
Iteration:  3753
 C         2.605016         1.302994        -0.141642
 C         1.704237         0.101626         0.070228
 C         0.680204        -0.399200        -0.875441
 C         0.381349        -1.240308         0.322843
 C         0.566415         0.031715         1.166196
 O         1.280436         0.033998         2.394488
 C         1.700029        -1.242763         2.745250
 O         2.518726        -1.781410         1.683487
 C         1.967524        -1.467573         0.511315
 H         3.449512         1.159130         0.582081
 H         2.950564         1.328214        -1.186886
 H         1.979733         2.197043        -0.012083
 H        -0.044077         0.424211        -1.178240
 H         1.144775        -0.943845        -1.662071
 H        -0.366488        -1.993638         0.566463
 H        -0.309167         0.798667         1.231344
 H         2.216930        -1.156533         3.724061
 H         0.757763        -1.910773         2.812201
 H         2.617803        -1.970456        -0.219003
