19
Iteration:  4842charge 0 multiplicity 1
 C         2.820974         1.028240        -0.229588
 C         1.690450         0.146896         0.062188
 C         0.562125        -0.344251        -0.904119
 C         0.371347        -1.285541         0.304673
 C         0.546722         0.020600         1.213590
 O         0.980182        -0.041682         2.494221
 C         1.720953        -1.254886         2.733991
 O         2.660639        -1.574066         1.744610
 C         2.005266        -1.332668         0.465604
 H         3.348109         1.409395         0.636539
 H         3.623939         0.451110        -0.748608
 H         2.595405         1.882251        -0.899484
 H        -0.239596         0.269204        -1.229293
 H         1.084316        -0.674544        -1.753222
 H        -0.492408        -1.930435         0.492150
 H        -0.243220         0.791424         1.122898
 H         2.225127        -1.132760         3.702771
 H         1.039239        -2.069881         2.924652
 H         2.622548        -1.865537        -0.327719
