19
Iteration:  2871
 C         2.703399         1.231553        -0.267499
 C         1.732385         0.146104         0.143421
 C         0.604552        -0.347925        -0.832902
 C         0.415031        -1.228673         0.382758
 C         0.535619         0.053514         1.197262
 O         1.075440        -0.036103         2.472861
 C         1.703248        -1.384894         2.727494
 O         2.630769        -1.700947         1.674388
 C         1.992186        -1.391653         0.420639
 H         3.365705         1.710331         0.458927
 H         3.575585         0.785879        -0.941569
 H         2.253116         2.108874        -0.739810
 H        -0.185695         0.483776        -0.865004
 H         1.040516        -0.674364        -1.734508
 H        -0.500272        -1.904043         0.562896
 H        -0.327393         0.776890         1.017500
 H         2.234663        -1.353862         3.682774
 H         0.875471        -2.100187         2.781987
 H         2.568212        -1.964892        -0.336328
