19
Iteration:  4061
 C         2.696121         1.255667        -0.210347
 C         1.745406         0.103627         0.023463
 C         0.646579        -0.369334        -0.943219
 C         0.449187        -1.293286         0.374880
 C         0.603379         0.035410         1.214934
 O         1.093424         0.047887         2.521016
 C         1.621312        -1.258165         2.712064
 O         2.603924        -1.746021         1.740708
 C         1.987503        -1.426763         0.441695
 H         3.080955         1.537983         0.765921
 H         3.623318         0.949717        -0.777519
 H         2.252721         2.148047        -0.633162
 H        -0.255129         0.304634        -1.123630
 H         0.777752        -0.902743        -1.874540
 H        -0.420276        -1.981875         0.571220
 H        -0.198743         0.809044         1.108873
 H         2.290315        -1.232438         3.614777
 H         0.717436        -1.856623         2.585401
 H         2.420676        -2.157200        -0.288375
