19
Iteration:  2878
 C         2.744477         1.287596        -0.263218
 C         1.684491         0.068276         0.109426
 C         0.656271        -0.363949        -0.840033
 C         0.352656        -1.255906         0.416205
 C         0.591908         0.123091         1.172388
 O         1.101143        -0.045170         2.474191
 C         1.699756        -1.412979         2.677773
 O         2.615838        -1.693039         1.670811
 C         1.987249        -1.372920         0.488321
 H         3.172710         1.690918         0.656501
 H         3.436309         1.003190        -0.978824
 H         2.068989         2.091241        -0.672694
 H        -0.132405         0.321978        -0.880074
 H         0.948615        -0.794361        -1.831173
 H        -0.358785        -2.023007         0.371212
 H        -0.213728         0.924803         1.247698
 H         2.213725        -1.293735         3.607496
 H         0.793854        -2.041778         2.828541
 H         2.437517        -1.935018        -0.303278
