19
Iteration:  4196
 C         2.862770         1.114400        -0.196483
 C         1.695329         0.100445         0.099387
 C         0.661735        -0.374225        -0.919505
 C         0.312736        -1.256374         0.359621
 C         0.568019         0.027011         1.218542
 O         0.998394        -0.024817         2.520385
 C         1.721772        -1.272818         2.692129
 O         2.614327        -1.465922         1.698745
 C         1.961685        -1.462517         0.454879
 H         3.544254         1.160565         0.668446
 H         3.410155         0.668851        -0.995430
 H         2.607215         2.061887        -0.701787
 H        -0.091517         0.298859        -1.188088
 H         1.140117        -0.832791        -1.876805
 H        -0.512550        -2.005487         0.377858
 H        -0.388259         0.611642         1.181338
 H         2.172694        -1.368163         3.692177
 H         0.864498        -2.004515         2.587372
 H         2.473980        -2.223920        -0.253241
