19
Iteration:  2096charge 0 multiplicity 1
 C         2.751005         1.310983        -0.051408
 C         1.635571         0.203928         0.028144
 C         0.507208        -0.448479        -0.854657
 C         0.416918        -1.308357         0.405064
 C         0.594238         0.028733         1.166723
 O         1.233279         0.029882         2.459524
 C         1.723497        -1.300148         2.698628
 O         2.529490        -1.752400         1.597967
 C         1.993040        -1.375306         0.422844
 H         3.413941         1.313065         0.825480
 H         3.420116         0.946877        -0.872483
 H         2.339833         2.316414        -0.193619
 H        -0.246703         0.396145        -1.055177
 H         0.834614        -0.972123        -1.801925
 H        -0.329746        -2.065284         0.799000
 H        -0.310441         0.627805         1.087804
 H         2.453584        -1.286592         3.497796
 H         0.886525        -2.063270         2.897825
 H         2.314255        -1.972439        -0.399362
