19
Iteration:  2239charge 0 multiplicity 1
 C         2.622638         1.366013        -0.050953
 C         1.748150         0.127140        -0.078645
 C         0.625653        -0.447752        -0.944331
 C         0.336224        -1.232443         0.330235
 C         0.678154         0.099898         1.150757
 O         1.156715        -0.054946         2.488798
 C         1.820391        -1.298986         2.818534
 O         2.529005        -1.727068         1.656706
 C         1.899671        -1.475132         0.462137
 H         3.273991         1.223907         0.840074
 H         3.335142         1.266137        -0.921541
 H         1.900672         2.140813         0.159262
 H        -0.288084         0.287009        -1.238787
 H         0.867283        -0.979964        -1.876344
 H        -0.628286        -1.871980         0.530233
 H        -0.015890         0.968251         1.106368
 H         2.688442        -0.991689         3.471709
 H         1.142619        -2.114434         3.120889
 H         2.419441        -2.069347        -0.283032
