19
Iteration:  2702
 C         2.725119         1.235919        -0.270099
 C         1.729649         0.108110         0.024089
 C         0.510460        -0.404163        -0.933962
 C         0.385404        -1.148961         0.395315
 C         0.679123         0.077048         1.167145
 O         1.096425        -0.129018         2.609829
 C         1.615030        -1.373152         2.773540
 O         2.622677        -1.639416         1.661310
 C         1.992498        -1.356674         0.393315
 H         3.184110         1.564596         0.768438
 H         3.642243         1.018454        -0.838728
 H         2.156286         2.175319        -0.615922
 H        -0.111268         0.381879        -1.219264
 H         0.955192        -1.036147        -1.749633
 H        -0.345495        -1.921721         0.534106
 H        -0.004515         0.957558         1.515793
 H         2.236248        -1.334793         3.719193
 H         0.958723        -2.220799         2.756682
 H         2.609238        -1.933921        -0.307014
