19
Iteration:   721charge 0 multiplicity 1
 C         2.720364         1.175354        -0.213348
 C         1.727362         0.075038         0.150371
 C         0.559817        -0.418483        -0.929748
 C         0.281708        -1.245950         0.382980
 C         0.621860         0.047389         1.221701
 O         1.173236         0.026623         2.568846
 C         1.784637        -1.292617         2.691575
 O         2.644594        -1.590646         1.606295
 C         1.855029        -1.427764         0.449661
 H         3.192022         1.649371         0.664330
 H         3.488925         0.925999        -0.892918
 H         2.064901         1.945852        -0.683333
 H        -0.010358         0.420013        -1.290036
 H         1.004134        -0.916806        -1.863647
 H        -0.593477        -2.023687         0.605698
 H        -0.209283         0.757962         1.226677
 H         2.473941        -1.440965         3.518182
 H         1.040715        -2.108910         2.629101
 H         2.292933        -2.120054        -0.255689
