19
Iteration:  4535charge 0 multiplicity 1
 C         2.863517         1.036422        -0.203334
 C         1.642809         0.138045        -0.019723
 C         0.637137        -0.425178        -0.890332
 C         0.440946        -1.242029         0.371720
 C         0.637475         0.094166         1.111683
 O         0.902620        -0.094846         2.526890
 C         1.649678        -1.251023         2.700173
 O         2.694397        -1.429669         1.686210
 C         1.941189        -1.429836         0.517217
 H         3.439181         1.011858         0.750118
 H         3.537127         0.772353        -0.998451
 H         2.553959         2.105223        -0.171266
 H        -0.224554         0.234674        -0.862157
 H         0.930202        -1.046827        -1.804684
 H        -0.408446        -1.970909         0.527653
 H        -0.138852         0.909930         1.190315
 H         2.138813        -1.242666         3.723538
 H         1.011960        -2.220255         2.756099
 H         2.288378        -2.182311        -0.079764
