19
Iteration:   651
 C         2.648181         1.090525        -0.155203
 C         1.681987         0.049842         0.019635
 C         0.604761        -0.326672        -0.895087
 C         0.316474        -1.291806         0.297458
 C         0.629084         0.045421         1.197925
 O         1.082362         0.017914         2.594208
 C         1.954102        -1.128906         2.746795
 O         2.547236        -1.684106         1.647419
 C         1.906602        -1.445817         0.392279
 H         3.332043         1.009245         0.685719
 H         3.263752         1.061247        -1.083272
 H         2.174390         2.052193        -0.114713
 H        -0.089743         0.486906        -1.232499
 H         0.982254        -0.717713        -1.807628
 H        -0.453933        -1.936994         0.638793
 H        -0.267253         0.699160         1.146583
 H         2.785482        -0.977369         3.489474
 H         1.317235        -1.964229         3.036833
 H         2.419096        -1.950673        -0.376126
