19
Iteration:  1283
 C         2.662235         1.297106        -0.273766
 C         1.698379         0.209123        -0.010078
 C         0.588438        -0.432864        -0.949574
 C         0.396265        -1.240815         0.482740
 C         0.704286         0.052936         1.151959
 O         1.085421        -0.166911         2.545830
 C         1.784095        -1.325754         2.814438
 O         2.567900        -1.643686         1.655558
 C         1.925508        -1.393100         0.388553
 H         2.874968         1.757071         0.753273
 H         3.627951         1.051535        -0.792196
 H         2.213022         2.095969        -0.845402
 H        -0.319361         0.232458        -1.092693
 H         0.985625        -0.977150        -1.801726
 H        -0.582332        -1.713735         0.876134
 H         0.090498         0.939741         1.249766
 H         2.534817        -1.116258         3.661456
 H         1.159156        -2.146714         3.238012
 H         2.287759        -2.142897        -0.230334
