19
Iteration:  1048charge 0 multiplicity 1
 C         2.712834         1.124647        -0.229033
 C         1.667967         0.139792         0.025847
 C         0.551917        -0.363374        -0.865306
 C         0.404384        -1.282865         0.382441
 C         0.540060         0.032351         1.241303
 O         1.096845        -0.012836         2.559018
 C         1.875895        -1.221476         2.723774
 O         2.522706        -1.790140         1.650044
 C         2.044196        -1.251285         0.390215
 H         3.147866         1.266647         0.759739
 H         3.378797         0.858815        -1.047436
 H         2.157605         2.093800        -0.549468
 H        -0.223711         0.375575        -0.897619
 H         0.702882        -0.939851        -1.818999
 H        -0.268242        -2.182677         0.362301
 H        -0.145199         0.929822         1.097214
 H         2.534293        -0.980400         3.541682
 H         1.043486        -1.964130         3.100475
 H         2.626984        -1.731503        -0.427601
