19
Iteration:  3099charge 0 multiplicity 1
 C         2.624353         1.283158        -0.047668
 C         1.721249         0.102548         0.030113
 C         0.631623        -0.409062        -0.991311
 C         0.412183        -1.266127         0.356709
 C         0.674731         0.014602         1.178351
 O         1.209355         0.070700         2.618409
 C         1.716546        -1.267039         2.721197
 O         2.506926        -1.755153         1.628041
 C         1.921288        -1.465656         0.362550
 H         3.325549         1.385289         0.767468
 H         3.235103         1.201971        -1.051180
 H         2.116009         2.224196        -0.388274
 H        -0.235740         0.355121        -1.165019
 H         1.092606        -1.004208        -1.821919
 H        -0.568711        -1.814374         0.443450
 H        -0.035573         0.970879         1.265989
 H         2.323774        -1.278566         3.633238
 H         0.831197        -1.848052         2.877195
 H         2.470468        -2.138645        -0.327494
