19
Iteration:  1179charge 0 multiplicity 1
 C         2.743351         1.106196        -0.199301
 C         1.728723         0.107697         0.021711
 C         0.630813        -0.383214        -0.849200
 C         0.335619        -1.337703         0.414849
 C         0.533529         0.060175         1.222368
 O         1.057726        -0.063667         2.518437
 C         1.860859        -1.259691         2.713892
 O         2.628550        -1.546566         1.600761
 C         1.850167        -1.356130         0.471952
 H         3.675652         1.038089         0.317114
 H         3.002260         1.222576        -1.247486
 H         2.163647         2.047253         0.105399
 H        -0.184969         0.247871        -1.071184
 H         1.068855        -0.629041        -1.856692
 H        -0.395561        -2.146454         0.527667
 H        -0.269944         0.893502         1.242909
 H         2.522430        -1.051359         3.497165
 H         1.235630        -2.108613         2.845476
 H         2.438334        -1.981862        -0.327312
