19
Iteration:   482
 C         2.798804         1.099032        -0.028372
 C         1.686610         0.105503         0.033017
 C         0.449369        -0.427913        -0.907199
 C         0.360210        -1.330082         0.365012
 C         0.506384         0.001122         1.262816
 O         1.187811         0.107975         2.494745
 C         1.814827        -1.199294         2.702558
 O         2.628140        -1.635770         1.595887
 C         1.937118        -1.393186         0.377257
 H         3.278900         1.346824         0.973038
 H         3.627826         0.949830        -0.699032
 H         2.317782         2.057572        -0.389548
 H        -0.463901         0.127900        -1.046730
 H         0.788174        -0.940292        -1.867338
 H        -0.378365        -2.100049         0.431993
 H        -0.257014         0.772421         1.082109
 H         2.453689        -1.141259         3.598060
 H         0.913778        -1.909507         2.808899
 H         2.463067        -1.961185        -0.510023
