19
Iteration:  2453charge 0 multiplicity 1
 C         2.757738         1.156067        -0.112798
 C         1.693550         0.103318         0.072108
 C         0.509156        -0.391070        -0.937753
 C         0.370565        -1.196808         0.338149
 C         0.608898         0.021307         1.165780
 O         1.107417        -0.052229         2.558705
 C         1.759644        -1.314937         2.732109
 O         2.633477        -1.602126         1.622127
 C         1.956658        -1.360327         0.391030
 H         3.099094         1.421759         0.897927
 H         3.498003         0.808926        -0.887744
 H         2.341129         2.182110        -0.374827
 H        -0.319658         0.305516        -1.034700
 H         0.836191        -0.972494        -1.893418
 H        -0.476345        -1.855004         0.521015
 H        -0.176710         0.817046         1.353809
 H         2.425109        -1.184547         3.638947
 H         1.017956        -2.089782         2.872780
 H         2.464573        -2.157101        -0.279721
