19
Iteration:  3181charge 0 multiplicity 1
 C         2.831232         1.180794        -0.256173
 C         1.712194         0.131749         0.032722
 C         0.551109        -0.330870        -0.845478
 C         0.326741        -1.190091         0.405140
 C         0.637847         0.066543         1.170998
 O         0.982677        -0.176029         2.566963
 C         1.699301        -1.341220         2.783506
 O         2.693316        -1.547366         1.609915
 C         1.923024        -1.406793         0.395671
 H         3.380004         1.070938         0.691647
 H         3.430616         0.724170        -0.969641
 H         2.490653         2.198539        -0.434462
 H        -0.050806         0.447478        -1.168393
 H         0.936875        -0.846690        -1.751108
 H        -0.545524        -1.770346         0.694345
 H        -0.117235         0.877713         1.175240
 H         2.390352        -1.126155         3.580541
 H         1.144451        -2.202508         2.920934
 H         2.379404        -2.103814        -0.312233
