19
Iteration:  1043charge 0 multiplicity 1
 C         2.712092         1.126577        -0.246324
 C         1.673207         0.116105         0.055097
 C         0.544236        -0.356661        -0.858455
 C         0.399558        -1.245916         0.361524
 C         0.555143        -0.004123         1.239254
 O         1.103147        -0.032752         2.524822
 C         1.869393        -1.237646         2.754943
 O         2.517810        -1.732137         1.635726
 C         2.010020        -1.280168         0.413125
 H         3.267058         1.264085         0.723592
 H         3.484301         0.899614        -1.011330
 H         2.126285         1.988044        -0.408413
 H        -0.255543         0.405206        -1.124884
 H         0.815231        -0.895656        -1.752936
 H        -0.271899        -2.090234         0.467021
 H        -0.159565         0.798971         1.206938
 H         2.587749        -0.896324         3.555051
 H         1.146697        -1.930018         3.084540
 H         2.592557        -1.711696        -0.444086
