19
Iteration:    69charge 0 multiplicity 1
 C         2.646360         1.195517        -0.281844
 C         1.723150         0.141535         0.034473
 C         0.613613        -0.528523        -0.816577
 C         0.399732        -1.195825         0.544040
 C         0.628740         0.201000         1.202840
 O         1.219632        -0.015933         2.532168
 C         1.557711        -1.395533         2.559409
 O         2.670804        -1.595544         1.664310
 C         1.975004        -1.406619         0.497680
 H         3.301143         1.411656         0.620771
 H         3.296083         0.951588        -1.100648
 H         2.105780         2.159881        -0.588611
 H        -0.213372         0.096850        -1.122868
 H         0.980080        -1.135301        -1.710530
 H        -0.549604        -1.965179         0.671214
 H        -0.238522         0.886279         1.292171
 H         1.957449        -1.693689         3.613729
 H         0.758329        -2.007853         2.086560
 H         2.271645        -2.036977        -0.285152
