19
Iteration:  1039
 C         2.714332         1.135865        -0.234113
 C         1.678035         0.111034         0.082451
 C         0.533918        -0.348392        -0.862448
 C         0.400655        -1.225672         0.346666
 C         0.585201        -0.013428         1.229042
 O         1.109121        -0.049506         2.499365
 C         1.856058        -1.227755         2.791045
 O         2.532286        -1.683093         1.620267
 C         1.963313        -1.334399         0.411777
 H         3.359303         1.305311         0.605495
 H         3.488163         0.908342        -1.012168
 H         2.156893         2.112992        -0.392078
 H        -0.234557         0.359891        -1.228076
 H         0.954467        -0.884605        -1.778464
 H        -0.359973        -2.096583         0.578108
 H        -0.273894         0.694819         1.311895
 H         2.609159        -0.947579         3.497776
 H         1.176107        -2.070523         3.166537
 H         2.515539        -1.813408        -0.343324
