19
Iteration:  1641
 C         2.760339         1.096285        -0.279712
 C         1.677605         0.183397         0.019662
 C         0.483532        -0.295548        -0.824896
 C         0.501054        -1.251199         0.361456
 C         0.635741         0.091401         1.243296
 O         0.983792        -0.203658         2.546752
 C         1.801416        -1.285946         2.765968
 O         2.556376        -1.590783         1.637436
 C         2.020164        -1.301305         0.394113
 H         3.452921         1.062894         0.613812
 H         3.171091         0.513875        -1.167948
 H         2.482010         2.074944        -0.589312
 H        -0.500474         0.282506        -0.953815
 H         0.826090        -0.668123        -1.808619
 H        -0.099453        -2.044386         0.670598
 H        -0.227051         0.825004         1.256770
 H         2.471695        -0.971658         3.579993
 H         1.152898        -2.115972         3.081204
 H         2.500882        -2.075024        -0.294390
