19
Iteration:  4459
 C         2.693200         1.339334        -0.195877
 C         1.830703         0.020266         0.018757
 C         0.679524        -0.505826        -0.940534
 C         0.428943        -1.249640         0.391111
 C         0.623651         0.120478         1.067459
 O         1.122492         0.055778         2.547832
 C         1.614593        -1.219532         2.775669
 O         2.505415        -1.720761         1.709468
 C         1.975163        -1.494552         0.463125
 H         3.066021         1.586107         0.792539
 H         3.540441         1.316916        -0.796605
 H         2.038439         2.168281        -0.395014
 H        -0.178506         0.099452        -1.083885
 H         0.972979        -1.114710        -1.816779
 H        -0.379169        -2.027505         0.399256
 H        -0.266683         0.776014         1.144654
 H         2.234852        -1.136729         3.690473
 H         0.795834        -1.944338         2.694476
 H         2.419700        -2.194695        -0.207657
