19
Iteration:  2357
 C         2.751427         1.239531        -0.299913
 C         1.676482         0.090918         0.119991
 C         0.666934        -0.330460        -0.912034
 C         0.336523        -1.231573         0.374853
 C         0.570637         0.001095         1.238083
 O         1.041249        -0.086637         2.581170
 C         1.771576        -1.374809         2.713676
 O         2.655179        -1.607579         1.670753
 C         1.910396        -1.336966         0.403174
 H         3.520354         1.278864         0.503638
 H         3.210559         0.810394        -1.277389
 H         2.248229         2.275064        -0.292569
 H        -0.034921         0.475906        -1.172743
 H         1.089464        -0.802220        -1.780761
 H        -0.489982        -2.062061         0.523654
 H        -0.210222         0.836137         1.231542
 H         2.452728        -1.137757         3.616272
 H         0.935298        -2.152349         2.785200
 H         2.362796        -2.091706        -0.322594
