19
Iteration:    11
 C         2.723885         1.190265        -0.128873
 C         1.686944         0.130860         0.130389
 C         0.605341        -0.262727        -0.902142
 C         0.376251        -1.305077         0.360206
 C         0.638007         0.000906         1.179212
 O         0.954200        -0.132701         2.502865
 C         2.065649        -0.944444         2.707301
 O         2.428410        -1.840625         1.686238
 C         1.885058        -1.489526         0.349284
 H         3.400620         1.242576         0.699738
 H         3.277319         0.742785        -0.970501
 H         2.384703         2.152498        -0.435989
 H        -0.162097         0.506533        -1.114940
 H         1.072479        -0.631603        -1.798675
 H        -0.335273        -2.074842         0.451243
 H        -0.230659         0.649250         1.117141
 H         2.917591        -0.185752         2.900754
 H         1.759882        -1.493120         3.618210
 H         2.440094        -2.175848        -0.341288
