19
Iteration:  4627
 C         2.642344         1.261762        -0.179695
 C         1.764015         0.084554         0.010974
 C         0.724646        -0.433685        -1.053046
 C         0.411586        -1.266668         0.426478
 C         0.680815         0.121053         1.165839
 O         1.157260         0.055651         2.499472
 C         1.637936        -1.261132         2.752810
 O         2.520469        -1.691188         1.754516
 C         1.914169        -1.512687         0.440969
 H         2.957017         1.547374         0.789697
 H         3.427122         1.181239        -0.899442
 H         1.877984         1.960208        -0.262113
 H        -0.027015         0.315601        -1.337447
 H         1.123909        -0.993913        -1.816678
 H        -0.388558        -2.096947         0.621594
 H        -0.228089         0.751498         1.092800
 H         2.290845        -1.062013         3.652688
 H         0.790589        -2.080667         3.012770
 H         2.466547        -2.254479        -0.196551
