19
Iteration:  3056
 C         2.720195         1.345500        -0.216986
 C         1.707376         0.184810         0.088766
 C         0.560760        -0.405190        -0.933552
 C         0.417139        -1.201597         0.407334
 C         0.673354         0.108441         1.173050
 O         1.122839        -0.029016         2.509215
 C         1.677857        -1.327182         2.721006
 O         2.557680        -1.822734         1.681095
 C         2.011379        -1.420465         0.453522
 H         3.259171         1.436704         0.697364
 H         3.354722         0.994854        -1.100615
 H         2.119219         2.186047        -0.535773
 H        -0.294528         0.329922        -1.088674
 H         0.919258        -0.985673        -1.765482
 H        -0.340739        -1.980355         0.759432
 H        -0.347765         0.706388         1.035861
 H         2.261079        -1.339086         3.648448
 H         0.901992        -2.052815         2.787739
 H         2.502452        -2.065088        -0.305107
