19
Iteration:   541charge 0 multiplicity 1
 C         2.686550         1.272088        -0.327761
 C         1.707674         0.160422         0.066677
 C         0.671793        -0.453088        -0.873039
 C         0.393147        -1.204666         0.454923
 C         0.713624         0.104273         1.238752
 O         0.958560        -0.139285         2.562659
 C         1.858831        -1.273417         2.766910
 O         2.508761        -1.706123         1.579900
 C         1.909571        -1.381441         0.446221
 H         3.281451         1.719657         0.406048
 H         3.339787         0.714037        -1.048984
 H         2.168486         2.036993        -0.869754
 H        -0.225889         0.172936        -1.180057
 H         1.114372        -0.944619        -1.698001
 H        -0.404051        -1.891951         0.584748
 H         0.134940         1.019634         1.290203
 H         2.629420        -0.910356         3.439240
 H         1.270408        -2.089654         3.293144
 H         2.347074        -1.979727        -0.273280
