19
Iteration:  1207
 C         2.731918         1.230728        -0.109966
 C         1.744899         0.141068        -0.061093
 C         0.403421        -0.516019        -0.916281
 C         0.289656        -1.228946         0.389440
 C         0.647156         0.080760         1.100443
 O         1.068996        -0.047600         2.636269
 C         1.752211        -1.280645         2.795971
 O         2.722183        -1.593676         1.605972
 C         1.993643        -1.411809         0.388990
 H         3.608912         0.939278         0.573615
 H         3.290533         1.308907        -1.068114
 H         2.228066         2.138118         0.108254
 H        -0.451853         0.077742        -1.415118
 H         0.878061        -1.113565        -1.697553
 H        -0.607957        -1.717842         0.810952
 H        -0.089045         0.814847         1.179051
 H         2.457790        -1.208898         3.706158
 H         1.072578        -2.197013         2.614232
 H         2.635881        -1.944013        -0.243828
