19
Iteration:  2303charge 0 multiplicity 1
 C         2.809955         1.168576        -0.192691
 C         1.630307         0.119999         0.058482
 C         0.511508        -0.304121        -0.885594
 C         0.439316        -1.317415         0.326000
 C         0.571757         0.000425         1.213071
 O         1.139847        -0.066736         2.570248
 C         1.670169        -1.341003         2.719861
 O         2.646289        -1.541014         1.658002
 C         1.963772        -1.373172         0.393016
 H         3.410194         1.578587         0.617710
 H         3.721009         0.804048        -0.772474
 H         2.420057         2.067203        -0.749341
 H        -0.413855         0.332805        -0.812826
 H         0.630552        -0.801455        -1.828377
 H        -0.422503        -2.098122         0.132926
 H        -0.218760         0.729838         1.434776
 H         2.193527        -1.194796         3.715094
 H         0.864813        -2.096031         2.870643
 H         2.514262        -2.019701        -0.350378
