19
Iteration:  1529charge 0 multiplicity 1
 C         2.598543         1.129596        -0.138276
 C         1.662030         0.089056         0.098993
 C         0.520473        -0.332840        -0.920115
 C         0.424858        -1.298781         0.195899
 C         0.574595         0.054502         1.286474
 O         1.245014         0.032602         2.491324
 C         1.776976        -1.258155         2.819397
 O         2.541324        -1.721767         1.678171
 C         2.006913        -1.345292         0.368228
 H         3.178391         1.408704         0.743792
 H         3.390916         0.761494        -0.896742
 H         2.187168         2.092197        -0.589202
 H        -0.313359         0.385389        -1.108837
 H         0.778028        -0.931695        -1.890568
 H        -0.182006        -2.151338         0.310776
 H        -0.403774         0.589529         1.450437
 H         2.553150        -1.081569         3.591518
 H         1.039883        -1.978360         3.025149
 H         2.853751        -1.510109        -0.380791
