19
Iteration:  2822
 C         2.849127         1.134729        -0.182234
 C         1.684311         0.143298         0.049877
 C         0.538832        -0.350989        -0.935468
 C         0.346388        -1.197080         0.424408
 C         0.619661         0.020560         1.198572
 O         0.986952        -0.160243         2.570883
 C         1.725549        -1.310873         2.730235
 O         2.675964        -1.508095         1.628178
 C         1.930342        -1.367154         0.402413
 H         3.649239         1.285385         0.592446
 H         3.451183         0.832062        -0.988029
 H         2.539148         2.185726        -0.369842
 H        -0.250589         0.317182        -1.166566
 H         0.874242        -1.051685        -1.755581
 H        -0.384925        -1.972233         0.507155
 H        -0.228791         0.758552         1.145523
 H         2.393062        -1.270752         3.625702
 H         1.041850        -2.193274         2.780478
 H         2.409871        -2.047279        -0.313441
