19
Iteration:   343
 C         2.692392         1.113037        -0.126694
 C         1.717774         0.052224         0.068447
 C         0.546702        -0.474184        -0.807307
 C         0.272634        -1.226078         0.471895
 C         0.723586         0.071224         1.156432
 O         1.161950         0.002616         2.505731
 C         1.692970        -1.239901         2.642544
 O         2.625565        -1.573440         1.617892
 C         2.011077        -1.392001         0.333959
 H         3.163120         1.440925         0.829389
 H         3.484753         0.907911        -0.851104
 H         2.050751         1.949247        -0.529837
 H        -0.092483         0.384235        -1.098254
 H         0.981317        -1.016194        -1.672244
 H        -0.668504        -1.886201         0.749404
 H        -0.146222         0.795778         1.288347
 H         2.077742        -1.528980         3.680854
 H         0.680975        -1.739201         2.656289
 H         2.426818        -2.007774        -0.410879
