19
Iteration:  1729charge 0 multiplicity 1
 C         2.721219         1.320880        -0.080815
 C         1.664279         0.201152        -0.006078
 C         0.459827        -0.423310        -0.833717
 C         0.443414        -1.437696         0.325724
 C         0.652362         0.076068         1.133142
 O         1.283571         0.085352         2.479614
 C         1.711879        -1.294554         2.778307
 O         2.443418        -1.786575         1.641498
 C         2.029983        -1.380701         0.391677
 H         3.421881         1.463390         0.778792
 H         3.415090         1.201454        -0.929684
 H         2.406223         2.332987        -0.113480
 H        -0.506455         0.229893        -0.823292
 H         0.670897        -0.932490        -1.810241
 H        -0.218104        -2.208075         0.653304
 H        -0.378056         0.549699         1.178571
 H         2.350186        -1.214284         3.649462
 H         0.772721        -2.024268         2.859564
 H         2.676845        -1.905675        -0.391352
