19
Iteration:   507
 C         2.661084         1.131027        -0.164305
 C         1.673949         0.164679        -0.013690
 C         0.561267        -0.318455        -0.890149
 C         0.378455        -1.273971         0.341927
 C         0.605400         0.002215         1.242156
 O         1.105335        -0.072102         2.480058
 C         1.881613        -1.197575         2.794608
 O         2.562204        -1.666728         1.652355
 C         1.953155        -1.422867         0.444075
 H         3.178724         1.468464         0.689673
 H         3.493257         0.664965        -0.754700
 H         2.404894         2.001019        -0.772481
 H        -0.329317         0.377957        -1.022937
 H         0.852491        -0.703329        -1.837354
 H        -0.455017        -1.919317         0.483238
 H        -0.206092         0.737568         1.093364
 H         2.646637        -0.817039         3.426291
 H         1.198404        -1.963252         3.298335
 H         2.390107        -2.034093        -0.283867
