19
Iteration:  4004charge 0 multiplicity 1
 C         2.924891         1.119679        -0.185660
 C         1.783654         0.169507         0.057721
 C         0.602424        -0.470184        -0.897228
 C         0.372188        -1.304338         0.412280
 C         0.499645         0.115321         1.188879
 O         0.871297        -0.097873         2.547266
 C         1.756796        -1.311634         2.693805
 O         2.698762        -1.543963         1.611455
 C         1.906004        -1.294523         0.431934
 H         3.513465         1.143060         0.773669
 H         3.593061         0.795881        -0.996328
 H         2.539005         2.091116        -0.417701
 H        -0.353045         0.176915        -1.169953
 H         0.794152        -1.140093        -1.662179
 H        -0.408685        -1.969502         0.612092
 H        -0.226617         0.931633         1.119799
 H         2.325764        -1.066660         3.559304
 H         1.113439        -2.111630         3.099522
 H         2.273695        -1.847836        -0.385988
