19
Iteration:  4860
 C         2.853669         1.015949        -0.201951
 C         1.673338         0.141077         0.053084
 C         0.621814        -0.365430        -0.943205
 C         0.428069        -1.305642         0.335005
 C         0.570220         0.034482         1.140308
 O         1.063576        -0.081803         2.565038
 C         1.664329        -1.267429         2.825827
 O         2.601879        -1.408805         1.678791
 C         1.891531        -1.347328         0.407175
 H         3.320978         1.428264         0.714698
 H         3.665175         0.403458        -0.614882
 H         2.728128         1.891686        -0.825058
 H        -0.221975         0.363200        -1.077611
 H         0.668515        -0.992887        -1.978123
 H        -0.193786        -2.184161         0.368003
 H        -0.266607         0.734016         1.236444
 H         2.300865        -1.295819         3.706025
 H         0.976483        -2.279711         2.985602
 H         2.371834        -2.057771        -0.315124
