19
Iteration:  2584charge 0 multiplicity 1
 C         2.689862         1.294759        -0.062917
 C         1.602540         0.109883         0.048270
 C         0.622641        -0.370216        -0.922267
 C         0.363608        -1.327186         0.264945
 C         0.620155        -0.069148         1.199205
 O         1.286595         0.040642         2.451197
 C         1.728335        -1.211088         2.852513
 O         2.513640        -1.738171         1.670158
 C         1.915034        -1.372000         0.374217
 H         3.422421         0.816698         0.601920
 H         3.107393         1.209148        -1.104821
 H         2.198979         2.226556         0.276446
 H        -0.235103         0.262462        -1.231415
 H         1.227414        -0.673817        -1.901588
 H        -0.358873        -2.100991         0.328168
 H        -0.158995         0.794552         1.221218
 H         2.468548        -1.149191         3.725497
 H         0.867329        -1.927317         2.937709
 H         2.587109        -1.942676        -0.350220
