19
Iteration:  4018charge 0 multiplicity 1
 C         2.866390         1.100091        -0.212094
 C         1.658083         0.124707        -0.003367
 C         0.615957        -0.415301        -0.936842
 C         0.416548        -1.172199         0.385339
 C         0.499506         0.089035         1.200104
 O         0.878177        -0.048441         2.620901
 C         1.832776        -1.326213         2.735678
 O         2.634680        -1.573771         1.656494
 C         1.968497        -1.367811         0.416444
 H         3.320442         1.345522         0.738530
 H         3.625315         0.585749        -0.877123
 H         2.587107         2.056033        -0.623922
 H        -0.130416         0.309459        -1.210267
 H         1.054853        -0.888833        -1.791054
 H        -0.203785        -2.087672         0.443574
 H        -0.417041         0.738312         1.167446
 H         2.401678        -1.187642         3.700177
 H         1.177158        -2.185645         2.728751
 H         2.512107        -2.094959        -0.239788
