19
Iteration:  1599
 C         2.708962         1.185411        -0.217178
 C         1.647917         0.148098         0.041847
 C         0.594247        -0.387749        -0.942112
 C         0.410125        -1.240558         0.431191
 C         0.577076         0.061378         1.240821
 O         1.149861        -0.091300         2.551383
 C         1.731616        -1.338688         2.708000
 O         2.636623        -1.525530         1.662824
 C         1.910755        -1.437642         0.426935
 H         3.596623         1.040566         0.512046
 H         3.063767         1.265020        -1.279820
 H         2.280288         2.176647         0.003489
 H        -0.141781         0.352169        -1.306444
 H         0.901961        -1.036316        -1.728406
 H        -0.367054        -2.071831         0.451365
 H        -0.223974         0.852368         1.188664
 H         2.347841        -1.327652         3.594488
 H         1.040103        -2.159690         2.729981
 H         2.387682        -2.085202        -0.368178
