19
Iteration:   321charge 0 multiplicity 1
 C         2.823006         1.151729        -0.046469
 C         1.598868         0.147329        -0.041113
 C         0.433835        -0.473678        -0.925660
 C         0.412864        -1.329482         0.444388
 C         0.603921         0.113324         1.121409
 O         1.211233         0.049285         2.512257
 C         1.744121        -1.295001         2.676604
 O         2.637541        -1.621622         1.628621
 C         1.907581        -1.373333         0.456338
 H         3.157079         1.286838         1.003197
 H         3.629597         0.736288        -0.627550
 H         2.498410         2.171216        -0.372150
 H        -0.395815         0.248878        -0.927599
 H         0.767542        -0.920054        -1.893546
 H        -0.309094        -2.277378         0.419746
 H        -0.243256         0.893572         1.074337
 H         2.391642        -1.065591         3.587582
 H         0.868295        -2.024778         2.922866
 H         2.205580        -2.160974        -0.177984
