19
Iteration:   251charge 0 multiplicity 1
 C         2.707200         1.216477        -0.195430
 C         1.790866         0.071591        -0.057597
 C         0.613976        -0.355458        -0.929121
 C         0.326159        -1.140441         0.368221
 C         0.590853         0.048393         1.150372
 O         0.940507        -0.248681         2.561301
 C         2.065961        -0.961906         2.803090
 O         2.406227        -1.850644         1.681143
 C         1.959101        -1.385270         0.441204
 H         3.523311         1.303540         0.576793
 H         3.211102         1.034848        -1.196826
 H         2.125427         2.164209        -0.173497
 H        -0.068435         0.473154        -1.080040
 H         0.873267        -1.025672        -1.781076
 H        -0.389084        -1.837700         0.627954
 H        -0.150202         0.867543         1.260892
 H         2.976519        -0.380716         3.130211
 H         1.730596        -1.774392         3.587542
 H         2.391996        -2.155336        -0.306925
