19
Iteration:  1524charge 0 multiplicity 1
 C         2.677814         1.146854        -0.159772
 C         1.649337         0.157346         0.058913
 C         0.498298        -0.343918        -0.952852
 C         0.446715        -1.332697         0.204145
 C         0.554917         0.048283         1.302959
 O         1.199423         0.043300         2.513763
 C         1.815630        -1.283291         2.848369
 O         2.582111        -1.753420         1.699229
 C         1.969090        -1.311182         0.348617
 H         3.077542         1.515346         0.806126
 H         3.328520         0.741803        -0.869779
 H         2.233173         1.995133        -0.667746
 H        -0.267978         0.381472        -1.186076
 H         0.783035        -0.809352        -1.881099
 H        -0.294025        -2.183779         0.534732
 H        -0.381462         0.576948         1.330252
 H         2.582819        -1.166965         3.604700
 H         0.911370        -2.024299         3.053170
 H         2.620411        -1.625506        -0.441585
