19
Iteration:  2562charge 0 multiplicity 1
 C         2.734712         1.271514        -0.086633
 C         1.646974         0.154350         0.074512
 C         0.539182        -0.382274        -0.908030
 C         0.492960        -1.291450         0.341898
 C         0.582916         0.052702         1.156157
 O         1.252211         0.023038         2.460666
 C         1.657008        -1.278906         2.737254
 O         2.544190        -1.773970         1.701988
 C         1.982285        -1.388637         0.427688
 H         3.636328         1.224797         0.570365
 H         3.048796         1.220140        -1.167156
 H         2.037207         2.150244         0.046578
 H        -0.366810         0.259715        -0.986351
 H         0.629009        -0.904880        -1.965849
 H        -0.190504        -2.102457         0.451228
 H        -0.370972         0.683355         1.024943
 H         2.368193        -1.229634         3.623718
 H         0.782931        -1.969812         2.789369
 H         2.494439        -1.948992        -0.406961
