19
Iteration:  3710charge 0 multiplicity 1
 C         2.749351         1.241548        -0.248277
 C         1.755511         0.137422        -0.059703
 C         0.586300        -0.420567        -0.907483
 C         0.434864        -1.267344         0.478966
 C         0.668694         0.081806         1.200820
 O         1.067072        -0.081912         2.604785
 C         1.632752        -1.293619         2.738167
 O         2.574329        -1.629549         1.652412
 C         2.005460        -1.395577         0.399396
 H         3.221060         1.324889         0.767984
 H         3.560781         0.994552        -0.959658
 H         2.228051         2.142068        -0.470035
 H        -0.332843         0.266110        -1.021041
 H         0.717697        -1.034150        -1.774396
 H        -0.408351        -1.934308         0.518865
 H        -0.183516         0.839718         1.148446
 H         2.257668        -1.173756         3.624671
 H         0.829574        -2.014181         2.782846
 H         2.292628        -2.015940        -0.458833
