19
Iteration:  2321charge 0 multiplicity 1
 C         2.793362         1.170877        -0.238846
 C         1.749218         0.163457        -0.022791
 C         0.474055        -0.407632        -0.864432
 C         0.377074        -1.225275         0.437083
 C         0.633710         0.054811         1.221129
 O         1.007447        -0.133246         2.572791
 C         1.735158        -1.413455         2.684155
 O         2.637500        -1.502047         1.664542
 C         1.971707        -1.310638         0.402287
 H         3.260038         1.294078         0.775857
 H         3.613065         0.839690        -0.852627
 H         2.638413         2.159497        -0.705866
 H        -0.244892         0.308780        -1.083692
 H         0.837261        -0.904882        -1.809220
 H        -0.224172        -1.951699         0.838045
 H        -0.167755         0.832593         1.209168
 H         2.171984        -1.521599         3.641416
 H         0.999235        -2.270005         2.623903
 H         2.418807        -1.986506        -0.361807
