19
Iteration:  3371
 C         2.693791         1.192112        -0.224742
 C         1.697129         0.106790         0.031120
 C         0.585358        -0.302701        -0.883017
 C         0.304877        -1.225455         0.425117
 C         0.648405         0.087904         1.172555
 O         1.097867        -0.095274         2.502774
 C         1.738664        -1.342470         2.705523
 O         2.664591        -1.623203         1.732454
 C         1.934566        -1.434567         0.418596
 H         3.452816         1.177062         0.576558
 H         3.349035         1.205913        -1.179744
 H         2.327489         2.244310        -0.206749
 H        -0.033748         0.508987        -1.329492
 H         1.013943        -0.782146        -1.768163
 H        -0.545595        -1.949406         0.470514
 H        -0.127020         0.821420         1.269034
 H         2.206619        -1.311177         3.713388
 H         0.926120        -2.198922         2.690940
 H         2.433913        -2.185192        -0.244267
