19
Iteration:  3310charge 0 multiplicity 1
 C         2.767923         1.047423        -0.152789
 C         1.649048         0.183301         0.081686
 C         0.522136        -0.334823        -0.890294
 C         0.424250        -1.240010         0.352507
 C         0.464521         0.092139         1.235608
 O         1.126918        -0.063321         2.501839
 C         1.798120        -1.308307         2.717244
 O         2.639447        -1.615793         1.701747
 C         1.981383        -1.348187         0.337615
 H         3.250912         1.123191         0.881245
 H         3.301619         0.471189        -0.849788
 H         2.434318         1.927846        -0.624689
 H        -0.112882         0.567650        -1.031757
 H         0.891002        -0.661622        -1.838999
 H        -0.229360        -2.085015         0.284404
 H        -0.485114         0.676372         1.066266
 H         2.370071        -1.214370         3.633185
 H         1.023592        -2.068706         2.954943
 H         2.442705        -1.948740        -0.414581
