19
Iteration:  4237charge 0 multiplicity 1
 C         2.665808         1.270582        -0.183223
 C         1.744811         0.151638         0.030968
 C         0.641924        -0.418124        -0.925986
 C         0.461098        -1.253422         0.391712
 C         0.646453         0.061269         1.120127
 O         1.154706         0.000095         2.443502
 C         1.637390        -1.237023         2.710572
 O         2.435437        -1.795612         1.754423
 C         2.040875        -1.410054         0.476681
 H         3.112518         1.599655         0.732440
 H         3.510378         0.967245        -0.856916
 H         2.212877         2.209416        -0.578242
 H        -0.010136         0.431233        -1.186118
 H         0.973031        -1.224431        -1.640378
 H        -0.471061        -1.789025         0.764807
 H        -0.201692         0.828712         1.041836
 H         2.220466        -1.177302         3.724385
 H         0.935386        -1.997268         3.043925
 H         2.649962        -2.086529        -0.172015
