19
Iteration:  2286charge 0 multiplicity 1
 C         2.688858         1.157393        -0.169008
 C         1.639734         0.118646         0.153098
 C         0.574997        -0.310495        -0.860060
 C         0.416807        -1.300922         0.324077
 C         0.616046         0.008950         1.174936
 O         1.106510         0.007003         2.538600
 C         1.793071        -1.269682         2.717932
 O         2.576049        -1.698615         1.630828
 C         1.981387        -1.339137         0.352994
 H         3.145405         1.441261         0.832950
 H         3.445269         0.541364        -0.640410
 H         2.103474         1.978183        -0.563514
 H        -0.222892         0.481728        -1.063454
 H         1.072663        -0.686673        -1.800912
 H        -0.234908        -2.123083         0.542354
 H        -0.263603         0.678637         1.097551
 H         2.426809        -1.194884         3.615183
 H         0.891999        -1.928450         2.755103
 H         2.619382        -1.882736        -0.320077
