19
Iteration:   553charge 0 multiplicity 1
 C         2.654515         1.178277        -0.370819
 C         1.733460         0.161594         0.070881
 C         0.625484        -0.354834        -0.879358
 C         0.414177        -1.143018         0.408219
 C         0.592614         0.126123         1.190401
 O         1.054839        -0.161332         2.566489
 C         1.828402        -1.257058         2.784822
 O         2.571749        -1.727626         1.712326
 C         1.962982        -1.391608         0.389604
 H         3.146754         1.484734         0.515593
 H         3.430957         1.008927        -1.147302
 H         2.080593         2.021397        -0.692819
 H        -0.249497         0.266857        -1.255018
 H         0.927876        -1.056647        -1.628626
 H        -0.384624        -1.890181         0.683823
 H        -0.298179         0.746776         1.134577
 H         2.538501        -1.062100         3.615850
 H         1.158653        -2.149671         3.048285
 H         2.320661        -1.967529        -0.361726
