19
Iteration:  1628charge 0 multiplicity 1
 C         2.790072         1.066453        -0.305317
 C         1.637907         0.187695         0.171472
 C         0.476390        -0.261368        -0.812769
 C         0.472120        -1.360867         0.370675
 C         0.609668        -0.028558         1.211647
 O         0.981108        -0.040574         2.572880
 C         1.738805        -1.268033         2.752399
 O         2.634085        -1.631692         1.646448
 C         2.012508        -1.313096         0.320341
 H         3.686405         1.132856         0.304749
 H         3.260943         0.804376        -1.296762
 H         2.461498         2.070565        -0.432562
 H        -0.252156         0.611891        -0.877616
 H         0.694203        -0.757954        -1.809342
 H        -0.179269        -2.154734         0.398401
 H        -0.201157         0.734977         1.141387
 H         2.479540        -1.170367         3.601891
 H         1.095908        -2.172002         2.983615
 H         2.690401        -1.594594        -0.523613
