19
Iteration:  4066charge 0 multiplicity 1
 C         2.699070         1.266945        -0.196054
 C         1.681963         0.103591        -0.014662
 C         0.655841        -0.398865        -0.920632
 C         0.439486        -1.236480         0.396313
 C         0.651647         0.032011         1.175890
 O         1.103421         0.049772         2.554409
 C         1.561717        -1.218425         2.705848
 O         2.620804        -1.789254         1.722619
 C         1.996085        -1.444070         0.418999
 H         3.060804         1.598304         0.805176
 H         3.569046         1.009355        -0.774185
 H         2.212050         2.219179        -0.560663
 H        -0.152714         0.265297        -1.124187
 H         0.912172        -1.031107        -1.833436
 H        -0.304040        -2.022130         0.698089
 H        -0.135947         0.785442         1.113973
 H         2.184388        -1.179070         3.579441
 H         0.748196        -1.989688         2.706877
 H         2.527235        -2.066487        -0.335836
