19
Iteration:  3566
 C         2.638405         1.278957        -0.202257
 C         1.721313         0.171298         0.010134
 C         0.566515        -0.465017        -0.885043
 C         0.430734        -1.221024         0.331402
 C         0.637575         0.127710         1.131207
 O         1.200081        -0.018756         2.523700
 C         1.692841        -1.307005         2.727896
 O         2.534998        -1.826687         1.735000
 C         1.985966        -1.362222         0.477225
 H         3.386300         1.085715         0.533215
 H         3.193403         1.531988        -1.104120
 H         2.296048         2.292720         0.020314
 H        -0.245614         0.283746        -0.990318
 H         0.855498        -1.054611        -1.837293
 H        -0.280640        -2.072459         0.401231
 H        -0.139617         0.990651         1.007040
 H         2.338276        -1.183983         3.613224
 H         0.845490        -2.059555         3.032493
 H         2.348270        -1.949147        -0.405855
