19
Iteration:   856charge 0 multiplicity 1
 C         2.749766         1.100715        -0.150193
 C         1.644211         0.116542         0.079365
 C         0.463494        -0.414951        -0.865989
 C         0.396680        -1.318111         0.367965
 C         0.610957         0.047860         1.239673
 O         1.132664         0.058445         2.532328
 C         1.720964        -1.236578         2.707126
 O         2.649185        -1.659475         1.615474
 C         2.015478        -1.340856         0.388256
 H         3.290903         1.029240         0.765977
 H         3.490985         0.734725        -0.940056
 H         2.509745         2.099544        -0.446826
 H        -0.528583         0.065414        -0.976566
 H         0.674747        -0.924333        -1.753536
 H        -0.378667        -2.061809         0.407330
 H        -0.085265         0.862636         1.158657
 H         2.243726        -1.071499         3.624330
 H         0.869337        -1.909706         2.636675
 H         2.623630        -1.644394        -0.538672
