19
Iteration:   260
 C         2.749252         1.251856        -0.202117
 C         1.759379         0.105995         0.077230
 C         0.576921        -0.363581        -0.904826
 C         0.280356        -1.186031         0.332770
 C         0.650275         0.030060         1.177720
 O         0.939827        -0.157605         2.511258
 C         2.008664        -1.042778         2.790858
 O         2.510216        -1.811304         1.695834
 C         1.909759        -1.488656         0.426392
 H         3.491503         1.445460         0.558282
 H         3.239600         1.123315        -1.227822
 H         2.169271         2.160027        -0.296094
 H        -0.126682         0.424715        -1.265694
 H         0.902204        -0.917798        -1.752920
 H        -0.537348        -1.820526         0.328714
 H        -0.040076         0.838590         1.189109
 H         2.905341        -0.473864         2.975345
 H         1.743017        -1.741379         3.641155
 H         2.261882        -2.216595        -0.341501
