19
Iteration:  3057
 C         2.712957         1.349568        -0.217866
 C         1.708429         0.185100         0.083917
 C         0.565382        -0.408809        -0.931903
 C         0.410099        -1.202709         0.401767
 C         0.677990         0.104192         1.172952
 O         1.124397        -0.028410         2.503756
 C         1.675618        -1.323808         2.715749
 O         2.560805        -1.826564         1.682966
 C         2.011931        -1.418678         0.466341
 H         3.266678         1.452884         0.707395
 H         3.347485         0.988436        -1.083624
 H         2.125994         2.186355        -0.507091
 H        -0.281262         0.331905        -1.087355
 H         0.910421        -0.957948        -1.760278
 H        -0.378616        -1.945211         0.781979
 H        -0.317147         0.702472         1.036786
 H         2.283056        -1.337588         3.641186
 H         0.898026        -2.086018         2.794839
 H         2.473250        -2.059607        -0.307687
