19
Iteration:   330
 C         2.740156         1.129126        -0.074610
 C         1.677035         0.049527         0.003138
 C         0.493195        -0.445034        -0.862615
 C         0.421770        -1.253644         0.474974
 C         0.595666         0.105983         1.215938
 O         1.191042         0.095664         2.494052
 C         1.677262        -1.291382         2.610112
 O         2.655700        -1.598348         1.623992
 C         1.933995        -1.429849         0.397740
 H         3.075052         1.258972         1.012454
 H         3.597430         0.810199        -0.652891
 H         2.394670         2.159686        -0.423358
 H        -0.360391         0.184915        -1.054995
 H         0.639214        -1.126783        -1.766764
 H        -0.296625        -2.053271         0.691743
 H        -0.171158         0.937801         1.042974
 H         2.216290        -1.321986         3.589951
 H         0.930668        -2.072131         2.370418
 H         2.399754        -2.087456        -0.381671
