19
Iteration:  2957
 C         2.782530         1.166238        -0.123045
 C         1.664643         0.084578         0.040422
 C         0.603058        -0.350270        -0.924868
 C         0.391522        -1.309176         0.283371
 C         0.554943         0.032741         1.192322
 O         1.085780        -0.025770         2.553870
 C         1.833703        -1.216156         2.758506
 O         2.545455        -1.662397         1.655894
 C         1.931641        -1.355473         0.439314
 H         3.329547         0.913590         0.728847
 H         3.383081         1.100260        -1.082756
 H         2.362656         2.175260        -0.123939
 H        -0.113139         0.461508        -1.115903
 H         0.924741        -0.822070        -1.841179
 H        -0.301788        -2.155618         0.382334
 H        -0.348049         0.785288         1.161567
 H         2.537599        -1.178959         3.597686
 H         0.967810        -2.044779         2.847248
 H         2.446451        -1.837597        -0.406384
