19
Iteration:  1230
 C         2.658503         1.206866        -0.141901
 C         1.683601         0.132456         0.057700
 C         0.530003        -0.413277        -0.859573
 C         0.447635        -1.321340         0.393281
 C         0.581213         0.042974         1.232733
 O         1.200043        -0.004107         2.450648
 C         1.728765        -1.291427         2.676599
 O         2.604470        -1.595068         1.679083
 C         1.943430        -1.382499         0.387534
 H         3.403439         1.061893         0.694774
 H         3.286540         0.991247        -0.983921
 H         2.271949         2.226031        -0.192369
 H        -0.237472         0.361942        -1.027605
 H         0.637058        -1.020841        -1.785204
 H        -0.162194        -2.163803         0.577079
 H        -0.175962         0.800349         1.225209
 H         2.339040        -1.222432         3.594546
 H         0.879657        -2.061089         2.671742
 H         2.447189        -2.050882        -0.313802
