19
Iteration:   497charge 0 multiplicity 1
 C         2.714132         1.146810        -0.122587
 C         1.600201         0.093011         0.097014
 C         0.526420        -0.327923        -0.866202
 C         0.371873        -1.357285         0.337171
 C         0.624244         0.045821         1.111456
 O         1.167654        -0.027827         2.456456
 C         1.849736        -1.179857         2.774749
 O         2.580530        -1.641035         1.662450
 C         1.901437        -1.382585         0.379203
 H         3.078990         1.289629         0.851837
 H         3.452852         0.551933        -0.708738
 H         2.475929         2.066398        -0.640628
 H        -0.147392         0.571926        -0.952408
 H         0.797860        -0.741603        -1.793386
 H        -0.230667        -2.235295         0.597992
 H        -0.238543         0.700066         1.266554
 H         2.570830        -0.968640         3.556398
 H         1.230113        -2.010045         3.154810
 H         2.415902        -1.961254        -0.276298
