19
Iteration:  1958charge 0 multiplicity 1
 C         2.718916         1.191915        -0.153267
 C         1.712342         0.065133         0.012363
 C         0.499655        -0.398822        -0.885438
 C         0.362795        -1.181405         0.488233
 C         0.682142         0.132224         1.160114
 O         0.992988        -0.093922         2.562698
 C         1.724547        -1.350812         2.669680
 O         2.696513        -1.613278         1.621886
 C         1.994145        -1.356597         0.362872
 H         3.486183         1.351037         0.717353
 H         3.459942         1.081935        -0.991130
 H         2.171956         2.125373        -0.216431
 H        -0.251287         0.334269        -1.197946
 H         0.652927        -1.207045        -1.547847
 H        -0.288616        -1.923312         0.869977
 H         0.083076         1.021324         1.284496
 H         2.279858        -1.413792         3.546191
 H         0.980346        -2.195566         2.549111
 H         2.493950        -2.060952        -0.329934
