19
Iteration:  1255
 C         2.643768         1.222771        -0.228946
 C         1.680005         0.152095         0.143490
 C         0.603045        -0.391610        -0.923669
 C         0.371169        -1.342751         0.351305
 C         0.536548         0.008713         1.272829
 O         1.179586         0.038150         2.558935
 C         1.747811        -1.234698         2.725779
 O         2.616237        -1.757070         1.647788
 C         2.000922        -1.346917         0.379660
 H         3.241084         1.577527         0.590855
 H         3.380116         0.865325        -0.922126
 H         2.079222         2.100769        -0.671424
 H        -0.135344         0.360644        -1.085999
 H         0.894910        -0.863976        -1.903617
 H        -0.411987        -2.055219         0.471975
 H        -0.176330         0.879990         1.247081
 H         2.422871        -1.210558         3.549282
 H         0.919643        -1.980710         2.759299
 H         2.492414        -1.968935        -0.488084
