19
Iteration:  1161charge 0 multiplicity 1
 C         2.725109         1.145765        -0.221249
 C         1.572379         0.134038         0.138356
 C         0.511698        -0.341100        -0.912552
 C         0.391208        -1.228289         0.291536
 C         0.574171        -0.079754         1.241194
 O         1.094928        -0.001997         2.572402
 C         1.794600        -1.209941         2.795817
 O         2.663335        -1.632749         1.658630
 C         2.014995        -1.409524         0.343330
 H         3.669157         0.827263         0.247766
 H         2.999520         0.836122        -1.306673
 H         2.591976         2.225656        -0.272036
 H        -0.235829         0.525386        -1.028331
 H         0.832320        -0.877532        -1.814933
 H        -0.370944        -2.130704         0.286790
 H        -0.268978         0.610310         1.256879
 H         2.516503        -0.946656         3.642238
 H         0.973704        -2.016691         2.959310
 H         2.584731        -2.012272        -0.285134
