19
Iteration:  3588charge 0 multiplicity 1
 C         2.677812         1.266724        -0.094283
 C         1.649977         0.189383         0.063039
 C         0.622843        -0.384932        -0.905129
 C         0.432754        -1.330680         0.372496
 C         0.636702        -0.015035         1.162951
 O         1.327303         0.083671         2.470132
 C         1.643834        -1.262872         2.758961
 O         2.472127        -1.764175         1.696104
 C         1.934975        -1.445668         0.372529
 H         3.551621         1.343117         0.494697
 H         2.842540         1.286542        -1.162927
 H         2.162653         2.220616        -0.117218
 H        -0.118141         0.326413        -1.321988
 H         1.110332        -1.021767        -1.737088
 H        -0.182662        -2.218490         0.598070
 H        -0.303856         0.666265         1.143424
 H         2.224245        -1.237640         3.686555
 H         0.751507        -1.888269         3.001300
 H         2.424858        -1.777802        -0.515473
