19
Iteration:   646charge 0 multiplicity 1
 C         2.664566         1.105488        -0.130366
 C         1.709005         0.043911         0.016767
 C         0.636077        -0.313868        -0.939721
 C         0.307023        -1.280616         0.361893
 C         0.570645         0.012718         1.175630
 O         1.130651        -0.020061         2.555677
 C         1.943152        -1.139670         2.764648
 O         2.551011        -1.638268         1.659665
 C         1.856797        -1.409839         0.377615
 H         3.412383         0.981296         0.682270
 H         3.181945         1.085547        -1.117323
 H         2.129900         2.099171        -0.111097
 H        -0.127020         0.424991        -1.144731
 H         0.955458        -0.946521        -1.851075
 H        -0.537849        -2.018133         0.661167
 H        -0.174619         0.819627         1.259755
 H         2.719110        -1.010948         3.496746
 H         1.268523        -1.996868         3.036485
 H         2.451637        -2.105510        -0.381856
