19
Iteration:  2942
 C         2.687780         1.169514        -0.051369
 C         1.685339         0.186594         0.134839
 C         0.576242        -0.325894        -0.917429
 C         0.366789        -1.288682         0.350308
 C         0.541597         0.015890         1.127617
 O         1.167287         0.050079         2.426171
 C         1.701685        -1.238032         2.735886
 O         2.620115        -1.757228         1.682273
 C         2.025594        -1.451196         0.401733
 H         3.569379         1.254438         0.661851
 H         3.136056         0.936699        -0.968673
 H         2.242756         2.227107        -0.090587
 H        -0.298563         0.294932        -1.021085
 H         0.958373        -0.787012        -1.931427
 H        -0.462522        -1.978025         0.431250
 H        -0.270368         0.723766         1.100025
 H         2.396124        -1.045814         3.563074
 H         1.013046        -2.079181         3.042425
 H         2.535052        -2.035951        -0.408090
