19
Iteration:  1003
 C         2.707854         1.133814        -0.165653
 C         1.747089        -0.000386         0.000804
 C         0.518533        -0.427681        -0.908389
 C         0.302118        -1.168550         0.395359
 C         0.626757         0.117293         1.232461
 O         1.036554        -0.051063         2.558759
 C         1.831410        -1.300023         2.702055
 O         2.706079        -1.558322         1.600866
 C         1.930629        -1.387331         0.431044
 H         3.420960         1.007841         0.707958
 H         3.215531         1.331361        -1.094696
 H         2.111749         2.084233         0.077278
 H        -0.149930         0.326515        -1.232733
 H         0.924239        -1.087400        -1.686702
 H        -0.471573        -1.862626         0.652862
 H        -0.264331         0.825392         1.178041
 H         2.461890        -1.175622         3.616555
 H         1.040443        -2.152317         2.835246
 H         2.295267        -2.134059        -0.368513
