19
Iteration:    18charge 0 multiplicity 1
 C         2.704371         1.184236        -0.174254
 C         1.678714         0.150560         0.097625
 C         0.594877        -0.236599        -0.872098
 C         0.412247        -1.332678         0.343639
 C         0.626473        -0.011427         1.175664
 O         0.953359        -0.036913         2.481976
 C         2.005800        -1.008045         2.803951
 O         2.468050        -1.848815         1.673182
 C         1.915467        -1.500097         0.351475
 H         3.438899         1.348512         0.625830
 H         3.319535         0.758793        -1.010428
 H         2.343663         2.174430        -0.478122
 H        -0.233032         0.505452        -0.999327
 H         0.989417        -0.597539        -1.832183
 H        -0.329951        -2.112836         0.542377
 H        -0.212500         0.715000         1.092704
 H         2.949914        -0.623307         3.213149
 H         1.743945        -1.796147         3.577543
 H         2.413515        -2.144899        -0.431964
