19
Iteration:  4283charge 0 multiplicity 1
 C         2.589219         1.227103        -0.129088
 C         1.770297         0.055804         0.030979
 C         0.729073        -0.427729        -0.958580
 C         0.411126        -1.190547         0.413489
 C         0.669302         0.072290         1.099804
 O         1.207086         0.020765         2.424518
 C         1.581694        -1.200215         2.822006
 O         2.457842        -1.753126         1.707854
 C         1.993089        -1.439534         0.452297
 H         3.162418         1.389697         0.806695
 H         3.276280         1.145919        -0.912694
 H         1.929874         2.121930        -0.249894
 H        -0.011857         0.209422        -1.265836
 H         1.255001        -1.045874        -1.769424
 H        -0.257632        -2.037763         0.511296
 H        -0.101567         0.905236         1.080384
 H         2.270294        -1.188309         3.654362
 H         0.828734        -1.902562         3.145854
 H         2.519863        -2.031853        -0.397926
