19
Iteration:  3350charge 0 multiplicity 1
 C         2.784379         1.092569        -0.161166
 C         1.757481         0.068022         0.053545
 C         0.612217        -0.406882        -0.883615
 C         0.390463        -1.176277         0.410057
 C         0.633228         0.127655         1.231876
 O         0.949966        -0.092199         2.636885
 C         1.736147        -1.335827         2.681977
 O         2.622086        -1.509961         1.566954
 C         1.950362        -1.368407         0.324096
 H         3.498970         1.227831         0.701400
 H         3.392898         0.892958        -1.168796
 H         2.351958         2.076266        -0.476042
 H        -0.346192         0.260967        -0.987932
 H         0.670778        -0.981524        -1.804041
 H        -0.284525        -1.976225         0.762852
 H        -0.057432         0.921718         1.362769
 H         2.336327        -1.351777         3.607968
 H         1.050637        -2.263488         2.739441
 H         2.296647        -2.159857        -0.385805
