19
Iteration:  4319
 C         2.902302         1.143908        -0.168817
 C         1.724780         0.094220         0.048397
 C         0.537693        -0.431801        -0.927141
 C         0.445114        -1.314172         0.347640
 C         0.561594         0.044603         1.180301
 O         1.005040         0.020217         2.542410
 C         1.559273        -1.195816         2.821687
 O         2.623441        -1.581198         1.662238
 C         2.045703        -1.411157         0.383741
 H         3.592352         1.141773         0.731640
 H         3.490279         0.671880        -1.007673
 H         2.624094         2.228697        -0.282102
 H        -0.405633         0.176520        -1.190032
 H         0.961182        -0.901706        -1.818700
 H        -0.399740        -2.040940         0.412495
 H        -0.255921         0.746087         1.100993
 H         2.046362        -1.109886         3.780178
 H         0.819874        -1.959376         2.648944
 H         2.587955        -2.112997        -0.382792
