19
Iteration:  2121charge 0 multiplicity 1
 C         2.712409         1.151457        -0.219853
 C         1.650738         0.162556         0.020417
 C         0.504045        -0.326398        -0.879182
 C         0.397024        -1.247089         0.258276
 C         0.659718         0.045233         1.275116
 O         1.083603        -0.097349         2.582041
 C         1.766469        -1.266957         2.763200
 O         2.585395        -1.692457         1.645740
 C         2.013790        -1.310954         0.421863
 H         3.317854         1.365637         0.711976
 H         3.472235         0.725097        -0.894295
 H         2.306936         2.108480        -0.518815
 H        -0.286418         0.395690        -1.166400
 H         0.860197        -0.866224        -1.718777
 H        -0.314943        -2.091342         0.321775
 H        -0.131123         0.782146         1.208790
 H         2.468723        -1.243244         3.594661
 H         1.083582        -2.165199         3.005302
 H         2.501729        -1.852176        -0.370665
