19
Iteration:  3370charge 0 multiplicity 1
 C         2.694324         1.183453        -0.226438
 C         1.700207         0.106298         0.025310
 C         0.581344        -0.296841        -0.888693
 C         0.315474        -1.223560         0.438142
 C         0.650506         0.087282         1.173452
 O         1.090675        -0.099278         2.509909
 C         1.737464        -1.343360         2.701228
 O         2.668417        -1.618877         1.725280
 C         1.926269        -1.434750         0.426971
 H         3.434427         1.188084         0.555588
 H         3.356698         1.194165        -1.142921
 H         2.319606         2.241718        -0.188358
 H        -0.008058         0.490915        -1.328500
 H         1.028284        -0.774854        -1.780511
 H        -0.545547        -1.945550         0.456726
 H        -0.143724         0.838588         1.231503
 H         2.222009        -1.298222         3.705449
 H         0.925947        -2.189157         2.672031
 H         2.434025        -2.183099        -0.245822
