19
Iteration:   519
 C         2.782497         1.235238        -0.285112
 C         1.695501         0.084327         0.059977
 C         0.558122        -0.366903        -0.944041
 C         0.363652        -1.193472         0.357496
 C         0.557288         0.031899         1.210589
 O         1.018295        -0.073613         2.605738
 C         1.926722        -1.192986         2.809747
 O         2.576902        -1.733541         1.656027
 C         1.926592        -1.415890         0.379145
 H         3.049654         1.636596         0.635494
 H         3.651354         0.951216        -0.930940
 H         2.175250         1.972757        -0.757167
 H        -0.353087         0.286773        -1.127822
 H         0.868146        -0.958766        -1.761997
 H        -0.425492        -1.949733         0.409060
 H        -0.188594         0.810558         1.309229
 H         2.665379        -0.941521         3.561389
 H         1.349423        -2.065237         3.213345
 H         2.392955        -2.002934        -0.296414
