19
Iteration:  4413charge 0 multiplicity 1
 C         2.730427         1.224005        -0.192704
 C         1.717192         0.042628         0.035161
 C         0.676588        -0.430845        -0.915984
 C         0.392568        -1.326914         0.314313
 C         0.525196         0.037039         1.173898
 O         1.142825         0.128899         2.444216
 C         1.651964        -1.276625         2.752389
 O         2.506783        -1.750466         1.781533
 C         2.055121        -1.358984         0.460305
 H         3.298638         1.530326         0.693603
 H         3.411907         1.115111        -0.989320
 H         2.130856         2.116655        -0.320277
 H         0.130135         0.398227        -1.209228
 H         1.052870        -1.065855        -1.793887
 H        -0.368747        -2.035103         0.479257
 H        -0.167564         0.904522         1.228052
 H         2.220824        -1.140350         3.610210
 H         0.685426        -1.897688         2.785628
 H         2.657635        -1.891948        -0.129788
