19
Iteration:   187charge 0 multiplicity 1
 C         2.743838         1.063205         0.038714
 C         1.708594         0.028145         0.166593
 C         0.609223        -0.263450        -0.958520
 C         0.316200        -1.256228         0.197029
 C         0.578578         0.016930         1.216475
 O         0.893282        -0.270746         2.597406
 C         2.246766        -0.657355         2.552502
 O         2.387777        -1.824276         1.720747
 C         1.858109        -1.510691         0.388225
 H         3.516397         1.030161         0.840428
 H         3.275056         0.836348        -0.856925
 H         2.418639         2.113376        -0.122124
 H        -0.204809         0.403240        -1.214477
 H         1.051355        -0.679471        -1.929763
 H        -0.488682        -1.996840         0.238210
 H        -0.090312         0.913565         1.016210
 H         2.831668         0.075334         2.075296
 H         2.521001        -1.093971         3.556488
 H         2.350949        -2.132727        -0.401730
