19
Iteration:  1150
 C         2.716134         1.113076        -0.215723
 C         1.644791         0.221054        -0.014183
 C         0.446458        -0.354084        -0.906373
 C         0.462660        -1.311848         0.306889
 C         0.626435         0.004383         1.290445
 O         1.108471        -0.024996         2.557731
 C         1.786139        -1.230577         2.791804
 O         2.577051        -1.676696         1.698506
 C         2.032007        -1.332713         0.356821
 H         3.548307         0.999517         0.500450
 H         3.006061         0.766513        -1.285830
 H         2.458462         2.174206        -0.291521
 H        -0.542600         0.246110        -1.070501
 H         0.794275        -0.643990        -1.907482
 H        -0.284656        -2.223850         0.423383
 H        -0.238699         0.661862         1.266447
 H         2.467769        -1.119265         3.706937
 H         1.057069        -2.100902         3.085708
 H         2.626223        -1.825593        -0.346376
