19
Iteration:  1704charge 0 multiplicity 1
 C         2.702925         1.237447        -0.079321
 C         1.670716         0.122214         0.022987
 C         0.436942        -0.375267        -0.902132
 C         0.388836        -1.297459         0.399310
 C         0.615517         0.058966         1.176095
 O         1.240703         0.025584         2.472518
 C         1.717332        -1.294256         2.721347
 O         2.576191        -1.717398         1.662587
 C         2.021999        -1.385911         0.381979
 H         3.178572         1.517452         0.845272
 H         3.565566         0.981253        -0.740503
 H         2.339469         2.184418        -0.403084
 H        -0.456554         0.279672        -1.048368
 H         0.821562        -0.870786        -1.809723
 H        -0.113061        -2.255836         0.575570
 H        -0.238603         0.763897         1.190379
 H         2.304866        -1.220813         3.689265
 H         0.838968        -2.039062         2.747979
 H         2.476915        -2.043337        -0.360563
