19
Iteration:  1961charge 0 multiplicity 1
 C         2.738605         1.185460        -0.180766
 C         1.714277         0.011275         0.025535
 C         0.497658        -0.368458        -0.860457
 C         0.338062        -1.154285         0.484665
 C         0.695379         0.130078         1.178253
 O         0.981228        -0.104332         2.565788
 C         1.711983        -1.353336         2.663638
 O         2.713837        -1.582227         1.621530
 C         2.016413        -1.359906         0.349578
 H         3.331725         1.291349         0.758445
 H         3.388323         1.083923        -1.038320
 H         2.176266         2.184110        -0.236163
 H        -0.294907         0.313530        -1.257475
 H         0.726839        -1.269039        -1.560119
 H        -0.315648        -1.970441         0.707421
 H         0.054893         1.008263         1.266845
 H         2.213195        -1.483842         3.648706
 H         1.031738        -2.192161         2.676727
 H         2.455042        -2.051274        -0.395805
