19
Iteration:  4744
 C         2.772079         1.203946        -0.172922
 C         1.753550         0.139898         0.019302
 C         0.613375        -0.520141        -0.991521
 C         0.427699        -1.295336         0.368160
 C         0.622251         0.068453         1.129601
 O         1.111956         0.033007         2.559402
 C         1.657261        -1.208316         2.764682
 O         2.491200        -1.695446         1.728597
 C         1.977101        -1.353981         0.427295
 H         3.534421         1.227083         0.650766
 H         3.279038         1.353669        -1.171107
 H         2.215059         2.170106         0.096022
 H        -0.361863         0.047263        -1.271422
 H         0.961168        -1.067548        -1.869270
 H        -0.233822        -2.167642         0.565132
 H        -0.188672         0.842469         1.047743
 H         2.372478        -1.080732         3.672195
 H         0.856369        -2.038277         2.953519
 H         2.470258        -2.083921        -0.320996
