19
Iteration:   722
 C         2.716455         1.176103        -0.214231
 C         1.734883         0.076776         0.144887
 C         0.565360        -0.414625        -0.926031
 C         0.278822        -1.252371         0.393158
 C         0.616536         0.047219         1.231133
 O         1.175773         0.029628         2.559594
 C         1.776795        -1.300468         2.685386
 O         2.645048        -1.583332         1.605154
 C         1.862551        -1.433515         0.455634
 H         3.180212         1.642047         0.653115
 H         3.517853         0.914816        -0.895431
 H         2.064456         1.968361        -0.663102
 H        -0.027680         0.412426        -1.270550
 H         0.988505        -0.927778        -1.846809
 H        -0.598255        -1.995587         0.585474
 H        -0.194104         0.765895         1.222959
 H         2.447489        -1.430790         3.497642
 H         1.011871        -2.128798         2.652712
 H         2.299172        -2.130611        -0.312177
