19
Iteration:   422
 C         2.703400         1.205496        -0.297545
 C         1.672886         0.091627         0.061595
 C         0.610955        -0.285129        -0.886608
 C         0.380454        -1.302505         0.386926
 C         0.621624         0.001382         1.216882
 O         1.069316         0.022533         2.572627
 C         1.745528        -1.233669         2.823967
 O         2.628998        -1.694193         1.637014
 C         1.937403        -1.457630         0.373612
 H         3.536073         1.080131         0.365370
 H         3.019481         1.039500        -1.373183
 H         2.318233         2.202900        -0.241959
 H        -0.287981         0.344164        -1.153901
 H         1.023139        -0.773082        -1.733721
 H        -0.471805        -2.037851         0.713953
 H        -0.044692         0.855984         1.117928
 H         2.562815        -1.178738         3.592816
 H         1.013383        -2.004639         3.032697
 H         2.525413        -2.001366        -0.323137
