19
Iteration:  1409
 C         2.677096         1.260174        -0.192623
 C         1.669173         0.128073         0.015054
 C         0.564032        -0.352471        -0.932529
 C         0.399854        -1.261139         0.358722
 C         0.602636         0.014916         1.188335
 O         1.118782        -0.008837         2.520010
 C         1.819364        -1.275568         2.817293
 O         2.598962        -1.742405         1.680229
 C         1.926715        -1.401690         0.405209
 H         3.546867         1.185831         0.430438
 H         2.989224         1.364264        -1.262446
 H         2.290261         2.303028        -0.003248
 H        -0.322932         0.172546        -1.265768
 H         0.997544        -0.972542        -1.740388
 H        -0.303210        -2.010539         0.574643
 H        -0.192244         0.798862         1.245880
 H         2.546002        -1.097713         3.614816
 H         0.976011        -1.991622         3.088336
 H         2.517588        -2.066785        -0.305357
