19
Iteration:  3169
 C         2.802921         1.063431        -0.168136
 C         1.734934         0.081220         0.088948
 C         0.652345        -0.305529        -0.932438
 C         0.304682        -1.199017         0.410175
 C         0.630599         0.059635         1.232286
 O         0.986284        -0.122506         2.614598
 C         1.778169        -1.335853         2.723813
 O         2.590109        -1.433291         1.559446
 C         1.925642        -1.445764         0.367211
 H         3.543698         1.387781         0.610376
 H         3.361449         0.843285        -1.022526
 H         2.424393         1.994462        -0.516807
 H        -0.201116         0.304031        -1.070700
 H         0.841021        -0.951913        -1.765572
 H        -0.380183        -2.035075         0.576346
 H        -0.131162         0.929306         1.249665
 H         2.376697        -1.311720         3.628273
 H         1.138915        -2.138782         2.761791
 H         2.284303        -2.124639        -0.401686
