19
Iteration:   250charge 0 multiplicity 1
 C         2.702794         1.214351        -0.194535
 C         1.789560         0.065540        -0.063601
 C         0.622984        -0.356945        -0.934323
 C         0.333492        -1.143954         0.368226
 C         0.585150         0.059960         1.153175
 O         0.938541        -0.256906         2.567134
 C         2.077690        -0.958321         2.802607
 O         2.393343        -1.854536         1.676642
 C         1.960006        -1.375083         0.442022
 H         3.503739         1.260188         0.564386
 H         3.230760         1.049984        -1.209752
 H         2.135540         2.146185        -0.174758
 H        -0.078209         0.480934        -1.077838
 H         0.849743        -1.002620        -1.773266
 H        -0.352744        -1.828926         0.668500
 H        -0.143257         0.851355         1.240357
 H         2.947427        -0.363926         3.168538
 H         1.752708        -1.746775         3.601077
 H         2.405245        -2.129501        -0.297945
