19
Iteration:  3997
 C         2.926341         1.137592        -0.169410
 C         1.725202         0.125669         0.094814
 C         0.571385        -0.466422        -0.892343
 C         0.359855        -1.263261         0.448467
 C         0.574220         0.063580         1.175383
 O         0.897387        -0.131456         2.491604
 C         1.741966        -1.233365         2.711791
 O         2.651701        -1.533031         1.610604
 C         1.944329        -1.290825         0.400608
 H         3.544932         1.118473         0.715053
 H         3.506831         0.746872        -1.045062
 H         2.576386         2.162235        -0.277920
 H        -0.247983         0.131924        -1.144478
 H         0.923461        -1.107400        -1.743284
 H        -0.492761        -1.974134         0.585295
 H        -0.128138         0.917435         1.302844
 H         2.209840        -1.013733         3.697680
 H         1.187329        -2.196498         2.851171
 H         2.444667        -2.008296        -0.317291
