19
Iteration:  2427charge 0 multiplicity 1
 C         2.606706         1.278134        -0.012173
 C         1.665128         0.102999         0.011272
 C         0.670709        -0.446491        -0.951780
 C         0.254274        -1.252421         0.391809
 C         0.646314         0.118076         1.165945
 O         1.234947         0.007900         2.446949
 C         1.792490        -1.332917         2.697440
 O         2.623005        -1.671758         1.658560
 C         1.870004        -1.472319         0.426289
 H         3.244211         1.267329         0.951151
 H         3.319902         1.323168        -0.847857
 H         2.153097         2.228457         0.111661
 H        -0.119265         0.294003        -1.285490
 H         1.020714        -1.114920        -1.791777
 H        -0.603020        -1.897510         0.471292
 H         0.027786         0.954768         1.316443
 H         2.352182        -1.202503         3.567171
 H         0.910989        -2.004402         2.777243
 H         2.339017        -2.153148        -0.215526
