19
Iteration:  4844charge 0 multiplicity 1
 C         2.829539         1.025550        -0.224727
 C         1.680758         0.154330         0.055292
 C         0.563284        -0.350377        -0.908926
 C         0.372426        -1.279878         0.297717
 C         0.556662         0.012191         1.212514
 O         0.989972        -0.053315         2.492411
 C         1.718646        -1.251470         2.757635
 O         2.653449        -1.560276         1.727609
 C         2.006270        -1.337774         0.475358
 H         3.338682         1.405772         0.680585
 H         3.598441         0.401130        -0.757694
 H         2.578277         1.862285        -0.933555
 H        -0.305059         0.313214        -1.215179
 H         1.118020        -0.623387        -1.732770
 H        -0.498130        -1.982715         0.502996
 H        -0.223603         0.779025         1.123997
 H         2.175733        -1.097336         3.759688
 H         1.048994        -2.043231         2.840835
 H         2.574685        -1.849456        -0.270377
