19
Iteration:  1737charge 0 multiplicity 1
 C         2.667958         1.286662        -0.104565
 C         1.653291         0.115191         0.020857
 C         0.510891        -0.396830        -0.868908
 C         0.429591        -1.341793         0.389107
 C         0.645078         0.069185         1.146072
 O         1.267278         0.059016         2.487267
 C         1.715849        -1.284311         2.730324
 O         2.478235        -1.794126         1.654783
 C         2.006283        -1.352543         0.390197
 H         3.273425         1.168329         0.808002
 H         3.278780         1.261534        -1.057310
 H         2.149952         2.229421        -0.113917
 H        -0.344249         0.294239        -1.078230
 H         0.908287        -0.726078        -1.847541
 H        -0.031698        -2.346468         0.440919
 H        -0.151583         0.844336         1.222670
 H         2.376245        -1.256650         3.653513
 H         0.845795        -1.917328         3.042199
 H         2.655993        -1.922644        -0.289572
