19
Iteration:  1174charge 0 multiplicity 1
 C         2.737572         1.114772        -0.243322
 C         1.716291         0.106856         0.091439
 C         0.614366        -0.321118        -0.851121
 C         0.332457        -1.365507         0.354109
 C         0.485644         0.028007         1.182752
 O         1.088225        -0.042469         2.558536
 C         1.847676        -1.220710         2.734586
 O         2.647942        -1.568557         1.619010
 C         1.902752        -1.380631         0.444151
 H         3.656062         0.996648         0.417771
 H         2.967325         1.109809        -1.329986
 H         2.361962         2.070021         0.069227
 H        -0.261721         0.355849        -1.141659
 H         0.976562        -0.725260        -1.809615
 H        -0.473006        -2.100873         0.532068
 H        -0.305179         0.733465         1.165776
 H         2.543113        -1.152115         3.648348
 H         1.194396        -2.141735         2.944567
 H         2.356625        -1.891292        -0.392533
