19
Iteration:   105charge 0 multiplicity 1
 C         2.694748         1.225147        -0.321423
 C         1.683096         0.136268        -0.009161
 C         0.594660        -0.334626        -0.893810
 C         0.485043        -1.285392         0.339437
 C         0.662224         0.090568         1.179091
 O         1.088080        -0.099437         2.564808
 C         1.800754        -1.255399         2.839799
 O         2.537254        -1.648409         1.684640
 C         1.886152        -1.440932         0.452346
 H         3.407850         1.350395         0.509430
 H         3.305832         0.808245        -1.206572
 H         2.248001         2.206084        -0.586978
 H        -0.274786         0.380548        -0.935647
 H         0.913999        -0.695295        -1.868771
 H        -0.405006        -1.994830         0.536354
 H        -0.289992         0.636920         1.278691
 H         2.484767        -1.103304         3.709268
 H         1.058068        -2.053226         3.300957
 H         2.301927        -2.182200        -0.268909
