19
Iteration:   143charge 0 multiplicity 1
 C         2.739563         1.091215        -0.094305
 C         1.640717         0.175287         0.114940
 C         0.625583        -0.403473        -0.912947
 C         0.362422        -1.228476         0.354374
 C         0.591700         0.105698         1.150580
 O         0.910714        -0.119980         2.529411
 C         2.045199        -0.974557         2.764255
 O         2.532188        -1.816826         1.577349
 C         1.919571        -1.458587         0.410013
 H         3.398417         1.064751         0.798791
 H         3.261593         0.825118        -0.978413
 H         2.409720         2.118987        -0.284441
 H        -0.140307         0.335155        -1.152871
 H         0.952090        -0.882520        -1.870826
 H        -0.379416        -1.969542         0.549872
 H        -0.240508         0.883413         1.178423
 H         2.847030        -0.252410         3.009006
 H         1.725757        -1.774650         3.509362
 H         2.405086        -2.038838        -0.416866
