19
Iteration:  4464
 C         2.669282         1.287124        -0.178347
 C         1.838001        -0.001879         0.033071
 C         0.660850        -0.483204        -0.938128
 C         0.477271        -1.249674         0.348418
 C         0.618222         0.100044         1.072421
 O         1.099926         0.042099         2.526085
 C         1.626579        -1.191392         2.793003
 O         2.522407        -1.727756         1.698797
 C         1.956425        -1.423726         0.484113
 H         3.130368         1.650351         0.778549
 H         3.557678         1.091738        -0.915386
 H         2.006980         2.149608        -0.466947
 H        -0.212014         0.256506        -1.028679
 H         0.942702        -1.118055        -1.781995
 H        -0.378709        -1.939442         0.437978
 H        -0.194996         0.822211         1.144808
 H         2.143926        -1.217267         3.797008
 H         0.846093        -2.001090         2.853386
 H         2.480177        -2.156534        -0.297839
