19
Iteration:  2914
 C         2.656518         1.296647        -0.075446
 C         1.747383         0.164817        -0.046398
 C         0.638603        -0.467400        -0.950827
 C         0.363723        -1.302218         0.425353
 C         0.661449         0.101671         1.175040
 O         1.230395         0.064815         2.541499
 C         1.651773        -1.364777         2.725825
 O         2.486047        -1.697079         1.662432
 C         1.998860        -1.439924         0.409545
 H         3.155379         1.312241         0.854430
 H         3.431361         1.399814        -0.919304
 H         1.983380         2.148371        -0.185735
 H        -0.234042         0.186368        -1.146928
 H         0.821725        -1.030433        -1.819273
 H        -0.459874        -2.041279         0.511253
 H        -0.173743         0.903632         1.064374
 H         2.419153        -1.401898         3.482757
 H         0.941010        -2.170917         2.808207
 H         2.473122        -2.037731        -0.374750
