19
Iteration:  2873
 C         2.712180         1.250767        -0.272968
 C         1.712268         0.113171         0.136836
 C         0.623390        -0.356413        -0.831175
 C         0.399650        -1.231271         0.395273
 C         0.541998         0.082299         1.187481
 O         1.082360        -0.036433         2.467282
 C         1.703579        -1.402156         2.709503
 O         2.628858        -1.697674         1.669705
 C         1.991555        -1.384812         0.444627
 H         3.353546         1.753188         0.549091
 H         3.580031         0.837463        -0.960611
 H         2.204071         2.105513        -0.695270
 H        -0.204328         0.475923        -0.809983
 H         1.052224        -0.711065        -1.785193
 H        -0.512872        -1.963681         0.502545
 H        -0.260602         0.780958         1.079866
 H         2.242185        -1.335893         3.708979
 H         0.823422        -2.066440         2.826119
 H         2.564173        -1.977495        -0.346782
