19
Iteration:  2229charge 0 multiplicity 1
 C         2.566176         1.234748        -0.062733
 C         1.720524         0.034825         0.020689
 C         0.632781        -0.383004        -0.940740
 C         0.421277        -1.180544         0.349577
 C         0.642623         0.088178         1.164114
 O         1.159330        -0.029686         2.502448
 C         1.776955        -1.230024         2.750314
 O         2.560721        -1.746332         1.642198
 C         1.939004        -1.444863         0.378199
 H         3.279498         1.151985         0.816931
 H         3.168626         1.517427        -1.010953
 H         2.030316         2.196796         0.047515
 H        -0.221041         0.443043        -1.037899
 H         0.918665        -0.948124        -1.834974
 H        -0.284281        -2.084057         0.461172
 H        -0.081190         0.920246         1.267257
 H         2.392746        -1.059474         3.686797
 H         1.028885        -1.939056         3.165134
 H         2.293990        -2.203825        -0.301153
