19
Iteration:  4949
 C         2.663965         1.276608        -0.206374
 C         1.748165         0.140383         0.105974
 C         0.667360        -0.419390        -0.917048
 C         0.490982        -1.360576         0.327116
 C         0.679018         0.094954         1.174508
 O         1.172325         0.090024         2.461835
 C         1.687401        -1.221239         2.733798
 O         2.382369        -1.822266         1.760396
 C         1.985219        -1.401507         0.453473
 H         3.472140         1.195901         0.516765
 H         2.937031         1.170312        -1.270083
 H         2.105266         2.181182         0.038266
 H        -0.226346         0.162413        -1.166374
 H         1.012774        -0.935219        -1.995109
 H        -0.219111        -2.155959         0.395430
 H        -0.154514         0.834812         1.130918
 H         2.338482        -1.283416         3.604433
 H         0.716727        -1.678692         2.922626
 H         2.514015        -2.071116        -0.291884
