19
Iteration:  1936
 C         2.732512         1.304247        -0.159310
 C         1.627715         0.134670         0.078615
 C         0.563686        -0.414330        -0.859268
 C         0.399015        -1.274873         0.376572
 C         0.598643         0.055185         1.188584
 O         1.218793        -0.011877         2.476798
 C         1.723549        -1.308406         2.745199
 O         2.559194        -1.692416         1.630315
 C         1.929637        -1.383870         0.388947
 H         3.410482         1.197625         0.795786
 H         3.489713         1.080684        -0.976243
 H         2.367424         2.321251        -0.129362
 H        -0.396532         0.083020        -1.079619
 H         1.014318        -0.900218        -1.719012
 H        -0.250124        -2.118826         0.356393
 H        -0.281237         0.681755         1.355496
 H         2.416708        -1.260796         3.542214
 H         0.918448        -2.089473         2.885507
 H         2.401927        -2.058826        -0.366184
