19
Iteration:  1611charge 0 multiplicity 1
 C         2.760514         1.173097        -0.269148
 C         1.709145         0.122000         0.041834
 C         0.580545        -0.330008        -0.829290
 C         0.403586        -1.301558         0.299789
 C         0.465550        -0.024811         1.293417
 O         1.085657        -0.018184         2.603822
 C         1.762367        -1.271904         2.682605
 O         2.647350        -1.586592         1.627493
 C         1.995991        -1.383125         0.424250
 H         3.703315         1.025851         0.370075
 H         3.080289         0.929210        -1.303662
 H         2.457348         2.249666        -0.193266
 H        -0.298511         0.288579        -0.924270
 H         0.921378        -0.674691        -1.782068
 H        -0.420212        -2.142749         0.409235
 H        -0.402868         0.655125         1.476715
 H         2.255385        -1.290611         3.622893
 H         0.928334        -1.960376         2.645283
 H         2.353995        -2.187108        -0.246607
