19
Iteration:  3901charge 0 multiplicity 1
 C         2.676451         1.304811        -0.176830
 C         1.696185         0.102092         0.062448
 C         0.703493        -0.445502        -0.930358
 C         0.369881        -1.200675         0.330691
 C         0.648951         0.015828         1.154212
 O         1.173136        -0.007959         2.510272
 C         1.713985        -1.303805         2.789241
 O         2.533201        -1.659714         1.699608
 C         1.919412        -1.462442         0.430504
 H         3.199642         1.672090         0.679481
 H         3.212661         0.929144        -1.014043
 H         1.926642         2.095369        -0.450502
 H        -0.140577         0.192223        -1.108270
 H         1.109176        -0.826423        -1.957860
 H        -0.435293        -1.971416         0.393339
 H        -0.027900         0.810983         1.258527
 H         2.302630        -1.405056         3.746211
 H         0.709257        -1.813670         2.892812
 H         2.541886        -2.109137        -0.221156
