19
Iteration:  2058charge 0 multiplicity 1
 C         2.576897         1.245288        -0.049230
 C         1.737052         0.041775         0.024078
 C         0.576998        -0.368142        -0.949585
 C         0.306443        -1.219201         0.350498
 C         0.691424         0.063389         1.119326
 O         1.232397         0.028920         2.556529
 C         1.787773        -1.345672         2.708527
 O         2.588995        -1.641329         1.608013
 C         1.875137        -1.485993         0.463429
 H         3.193272         1.307342         0.913320
 H         3.227049         1.292353        -0.972202
 H         2.045434         2.294584        -0.135890
 H        -0.037476         0.483458        -1.193728
 H         0.854849        -0.942446        -1.880242
 H        -0.497916        -1.916577         0.431774
 H        -0.008936         0.900768         1.305426
 H         2.409447        -1.370246         3.655460
 H         0.999931        -2.126485         2.859944
 H         2.490943        -2.286127        -0.130675
