19
Iteration:   797
 C         2.609244         1.090872        -0.213450
 C         1.664630         0.057432         0.125404
 C         0.661573        -0.303832        -0.964240
 C         0.338974        -1.215392         0.440500
 C         0.566338         0.124131         1.174789
 O         1.109244        -0.009445         2.499802
 C         1.841780        -1.294564         2.742073
 O         2.621386        -1.671372         1.650943
 C         1.958239        -1.420608         0.420107
 H         3.531141         1.162670         0.402722
 H         2.887194         0.851370        -1.196952
 H         2.104756         2.067110        -0.036076
 H        -0.183815         0.377589        -1.056679
 H         1.070819        -0.821048        -1.928194
 H        -0.565057        -1.953396         0.748902
 H        -0.130719         0.976961         1.050122
 H         2.552521        -1.156807         3.596451
 H         1.232207        -2.158606         3.083507
 H         2.557090        -1.893532        -0.284416
