19
Iteration:  1085charge 0 multiplicity 1
 C         2.641449         1.295114        -0.187666
 C         1.731554         0.066898         0.008969
 C         0.601755        -0.416871        -0.863375
 C         0.323922        -1.264344         0.436020
 C         0.625195         0.035207         1.200988
 O         1.263723        -0.044243         2.485778
 C         1.736213        -1.321108         2.719626
 O         2.552003        -1.626689         1.679791
 C         1.932389        -1.370596         0.397931
 H         3.087718         1.768962         0.693433
 H         3.580033         1.061110        -0.785505
 H         2.103081         2.040676        -0.760596
 H        -0.222941         0.352371        -1.121012
 H         0.730404        -1.010572        -1.779519
 H        -0.539454        -2.023040         0.522375
 H        -0.130529         0.784891         1.311688
 H         2.398708        -1.320447         3.629193
 H         0.908148        -2.072047         2.796647
 H         2.365775        -2.122792        -0.211407
