19
Iteration:  2090charge 0 multiplicity 1
 C         2.724295         1.322664        -0.031522
 C         1.637259         0.150920         0.012928
 C         0.534581        -0.431430        -0.828631
 C         0.385362        -1.272435         0.414759
 C         0.629930         0.009083         1.157638
 O         1.252068         0.024016         2.460667
 C         1.709257        -1.270241         2.659167
 O         2.544928        -1.750029         1.578415
 C         1.989189        -1.404420         0.452425
 H         3.196555         1.122259         0.950943
 H         3.286856         1.018136        -0.906976
 H         2.213830         2.279893        -0.156963
 H        -0.146665         0.339363        -1.102631
 H         0.861690        -1.046174        -1.648603
 H        -0.377320        -2.002354         0.624262
 H        -0.259927         0.677202         1.225876
 H         2.371642        -1.132901         3.522667
 H         0.830346        -1.886114         2.735292
 H         2.393951        -1.987269        -0.421625
