19
Iteration:  4756
 C         2.691299         1.301776        -0.106242
 C         1.704988         0.090868         0.037594
 C         0.643313        -0.536497        -0.882403
 C         0.499178        -1.311071         0.335886
 C         0.668741         0.086540         1.134541
 O         1.128982         0.117103         2.472265
 C         1.633888        -1.244023         2.773645
 O         2.478431        -1.719723         1.672537
 C         1.975484        -1.428521         0.450315
 H         3.588304         0.996690         0.458836
 H         3.020158         1.045434        -1.157671
 H         2.400406         2.407367        -0.073287
 H        -0.183081         0.282921        -1.189084
 H         1.059519        -1.114840        -1.687520
 H        -0.320635        -2.080807         0.478014
 H        -0.192580         0.793723         1.114653
 H         2.360664        -1.247063         3.703092
 H         0.648187        -1.884567         2.921674
 H         2.532485        -2.046826        -0.311277
