19
Iteration:  3080charge 0 multiplicity 1
 C         2.590916         1.326649        -0.152821
 C         1.770122         0.051946         0.071422
 C         0.696128        -0.379064        -0.920977
 C         0.307557        -1.183770         0.371760
 C         0.671422         0.132337         1.167164
 O         1.242625        -0.058751         2.439888
 C         1.718999        -1.322495         2.778404
 O         2.536365        -1.738446         1.697127
 C         1.892422        -1.452166         0.427199
 H         3.100645         1.443195         0.818828
 H         3.225011         1.334209        -1.064450
 H         1.788934         2.003604        -0.247798
 H        -0.053540         0.416862        -1.169361
 H         1.017758        -1.000987        -1.684782
 H        -0.386642        -2.074377         0.313911
 H        -0.054377         1.084016         1.084165
 H         2.293485        -1.318491         3.740165
 H         0.904919        -2.059761         2.879155
 H         2.371440        -2.142021        -0.274691
