19
Iteration:  2031charge 0 multiplicity 1
 C         2.763005         1.215015        -0.186604
 C         1.716397         0.187301         0.096861
 C         0.487592        -0.383823        -0.878935
 C         0.435606        -1.256485         0.422099
 C         0.600337         0.083804         1.175506
 O         1.038280        -0.046883         2.531067
 C         1.784565        -1.317510         2.740692
 O         2.589249        -1.752346         1.601598
 C         1.938923        -1.337942         0.364535
 H         3.510477         1.439386         0.552139
 H         3.405301         0.960411        -1.053595
 H         2.364953         2.181319        -0.344143
 H        -0.300189         0.370054        -1.074582
 H         0.871975        -0.830521        -1.785628
 H        -0.186264        -2.185803         0.621390
 H        -0.189902         0.824052         1.274943
 H         2.512366        -1.114738         3.530120
 H         1.210978        -2.158464         3.123925
 H         2.472425        -1.968868        -0.285105
