19
Iteration:  1051
 C         2.697888         1.149275        -0.208735
 C         1.662100         0.159682         0.012767
 C         0.556161        -0.378374        -0.871006
 C         0.419298        -1.307178         0.390962
 C         0.541886         0.073990         1.234945
 O         1.091893         0.005446         2.575926
 C         1.850806        -1.213638         2.719318
 O         2.538707        -1.825720         1.650959
 C         2.053349        -1.263436         0.365768
 H         3.136619         1.323928         0.738894
 H         3.347218         0.794108        -1.088148
 H         2.309624         2.126429        -0.630877
 H        -0.286263         0.395645        -0.780676
 H         0.656175        -0.918828        -1.855620
 H        -0.304078        -2.272395         0.351625
 H        -0.142137         0.903261         1.090422
 H         2.550567        -1.085876         3.539875
 H         1.096128        -1.965873         3.091688
 H         2.603383        -1.806526        -0.319239
