19
Iteration:   839charge 0 multiplicity 1
 C         2.766106         1.126476        -0.113957
 C         1.664216         0.120087        -0.004949
 C         0.481843        -0.468377        -0.899531
 C         0.453212        -1.281158         0.448132
 C         0.650137         0.143689         1.151192
 O         1.113407        -0.030099         2.538263
 C         1.793004        -1.274733         2.730261
 O         2.534719        -1.569663         1.640418
 C         1.905075        -1.381012         0.341067
 H         3.482446         1.144964         0.799249
 H         3.324121         1.044490        -1.016862
 H         2.303038         2.156892        -0.253849
 H        -0.185008         0.379020        -1.090276
 H         0.900890        -0.965630        -1.853276
 H        -0.148541        -2.181071         0.834626
 H        -0.246152         0.845196         1.225109
 H         2.655136        -1.318558         3.517989
 H         1.078533        -2.131297         2.920435
 H         2.333613        -2.175959        -0.277714
