19
Iteration:  1896
 C         2.641938         1.313515        -0.084187
 C         1.670536         0.143831         0.047431
 C         0.605971        -0.333821        -0.851094
 C         0.411998        -1.312168         0.290290
 C         0.595262         0.066105         1.196027
 O         1.223297         0.013216         2.458562
 C         1.838822        -1.215010         2.770468
 O         2.490007        -1.827038         1.649507
 C         1.921454        -1.496731         0.394937
 H         3.089617         1.382930         0.865357
 H         3.249712         1.227602        -0.941917
 H         1.979889         2.223801        -0.214849
 H        -0.211109         0.293447        -1.201453
 H         0.950822        -0.909947        -1.770838
 H        -0.317753        -2.089973         0.365848
 H        -0.077746         0.897594         1.097299
 H         2.582545        -1.006388         3.538012
 H         1.117784        -1.895455         3.233155
 H         2.428759        -2.081540        -0.374840
