19
Iteration:  4940
 C         2.676996         1.232372        -0.166181
 C         1.703586         0.148993         0.124293
 C         0.612967        -0.444245        -0.995719
 C         0.480022        -1.333030         0.263893
 C         0.651881         0.095501         1.146629
 O         1.226451         0.183293         2.539873
 C         1.650009        -1.284417         2.870310
 O         2.418644        -1.790725         1.720362
 C         1.991978        -1.477084         0.393724
 H         3.568078         1.427550         0.375211
 H         2.990487         1.297308        -1.208145
 H         2.142513         2.193101        -0.115637
 H        -0.296460         0.132365        -1.241778
 H         1.284076        -0.813965        -1.910401
 H        -0.148490        -2.200866         0.423586
 H        -0.239453         0.740470         0.993195
 H         2.351741        -1.306085         3.770995
 H         0.652482        -1.920762         3.002157
 H         2.599593        -2.070691        -0.396372
