19
Iteration:  1208
 C         2.743779         1.231646        -0.111683
 C         1.735180         0.134266        -0.068906
 C         0.396173        -0.515635        -0.921742
 C         0.280760        -1.235638         0.391293
 C         0.647662         0.077381         1.099818
 O         1.075358        -0.039689         2.638036
 C         1.750801        -1.283789         2.796886
 O         2.724763        -1.600003         1.606501
 C         1.997599        -1.402033         0.395689
 H         3.608876         0.968818         0.598010
 H         3.278536         1.329583        -1.043452
 H         2.209205         2.144854         0.088355
 H        -0.459048         0.071378        -1.359547
 H         0.907264        -1.073999        -1.719173
 H        -0.578773        -1.719631         0.762307
 H        -0.102138         0.806483         1.195443
 H         2.417002        -1.222402         3.706701
 H         1.051584        -2.181505         2.620750
 H         2.679018        -1.944640        -0.244918
