19
Iteration:  2866
 C         2.705057         1.188547        -0.269127
 C         1.757382         0.212318         0.147591
 C         0.568497        -0.309070        -0.830734
 C         0.438821        -1.235904         0.354339
 C         0.544573         0.000493         1.209329
 O         1.060076        -0.046099         2.508366
 C         1.695769        -1.331577         2.744211
 O         2.625348        -1.705872         1.688744
 C         1.992425        -1.391796         0.383119
 H         3.399117         1.619590         0.480901
 H         3.378617         0.706950        -0.894746
 H         2.320727         2.044338        -0.874148
 H        -0.143971         0.439570        -1.088372
 H         0.990520        -0.709474        -1.809245
 H        -0.371747        -1.843162         0.643094
 H        -0.314809         0.674471         1.033268
 H         2.264988        -1.338083         3.684379
 H         0.973411        -2.186881         2.677042
 H         2.541088        -1.957250        -0.370163
