19
Iteration:  3308
 C         2.763326         1.063890        -0.147440
 C         1.630294         0.150875         0.095677
 C         0.529168        -0.329237        -0.880363
 C         0.426062        -1.238774         0.347317
 C         0.487886         0.085496         1.244484
 O         1.123122        -0.044812         2.499838
 C         1.788538        -1.305856         2.708142
 O         2.636210        -1.627891         1.695675
 C         1.985166        -1.349586         0.339682
 H         3.180056         1.103229         0.920922
 H         3.307159         0.468239        -0.925586
 H         2.389208         1.918840        -0.657469
 H        -0.134287         0.616837        -1.110347
 H         0.936582        -0.709463        -1.802872
 H        -0.264889        -2.069643         0.242865
 H        -0.401447         0.681175         1.064065
 H         2.379577        -1.214012         3.609361
 H         1.071345        -2.029712         2.972709
 H         2.498744        -1.903966        -0.434152
