19
Iteration:  2985charge 0 multiplicity 1
 C         2.869694         1.168230        -0.158088
 C         1.699064         0.111744         0.023763
 C         0.555623        -0.396270        -0.898550
 C         0.360544        -1.214315         0.406657
 C         0.610055         0.110961         1.159740
 O         0.921092        -0.179322         2.585478
 C         1.801973        -1.277235         2.731210
 O         2.605694        -1.511172         1.621194
 C         1.960513        -1.422552         0.408496
 H         3.550948         1.020772         0.737462
 H         3.407273         0.853657        -1.026246
 H         2.461564         2.213625        -0.345819
 H        -0.210368         0.298227        -1.222816
 H         0.925793        -1.103068        -1.735366
 H        -0.533607        -1.762808         0.717290
 H        -0.095083         0.859272         1.082429
 H         2.539365        -1.248183         3.558769
 H         1.263371        -2.154876         2.824525
 H         2.400488        -1.877438        -0.479488
