19
Iteration:  4296charge 0 multiplicity 1
 C         2.758797         1.265791        -0.129415
 C         1.740849         0.133900         0.005390
 C         0.621290        -0.463811        -0.907678
 C         0.465726        -1.319720         0.361300
 C         0.643586         0.095200         1.099917
 O         1.097378         0.050309         2.414378
 C         1.666906        -1.258104         2.758538
 O         2.500515        -1.772081         1.777846
 C         1.966269        -1.384857         0.463816
 H         3.369677         1.400076         0.811739
 H         3.413358         1.062211        -0.969649
 H         2.184800         2.224195        -0.213621
 H        -0.166914         0.304426        -1.060600
 H         0.827184        -0.998872        -1.874965
 H        -0.330708        -1.963523         0.692722
 H        -0.165561         0.832353         0.982526
 H         2.140402        -1.022932         3.659516
 H         0.814539        -1.920947         2.825703
 H         2.423294        -2.176368        -0.258757
