19
Iteration:  4406
 C         2.729621         1.227203        -0.189295
 C         1.742579         0.078787         0.077114
 C         0.665192        -0.387391        -0.926903
 C         0.423383        -1.339854         0.330287
 C         0.612673         0.008640         1.172692
 O         1.073223         0.109926         2.462297
 C         1.674594        -1.224189         2.784636
 O         2.508361        -1.726763         1.754243
 C         1.991430        -1.412871         0.446452
 H         3.429606         1.360140         0.641832
 H         3.389385         0.943314        -1.040280
 H         2.296505         2.188768        -0.520640
 H        -0.084260         0.377474        -1.289548
 H         1.013278        -0.933303        -1.770626
 H        -0.391075        -2.133839         0.394515
 H        -0.282951         0.679441         1.084646
 H         2.182560        -1.116289         3.791133
 H         0.803636        -1.887779         2.710010
 H         2.697645        -1.995985        -0.306188
