19
Iteration:  2106charge 0 multiplicity 1
 C         2.778564         1.246330        -0.114894
 C         1.670547         0.217150         0.097172
 C         0.480735        -0.419981        -0.930382
 C         0.462891        -1.310081         0.403267
 C         0.569057         0.071253         1.186203
 O         1.181314        -0.005247         2.485164
 C         1.772740        -1.329778         2.756759
 O         2.540201        -1.756999         1.664218
 C         1.923231        -1.317722         0.307582
 H         3.383227         1.410094         0.786319
 H         3.492410         1.028674        -0.944103
 H         2.456104         2.282830        -0.407252
 H        -0.530820         0.097996        -0.996994
 H         0.775647        -0.816401        -1.963618
 H        -0.175567        -2.210937         0.623751
 H        -0.284183         0.776175         1.245030
 H         2.421876        -1.262313         3.672333
 H         0.937622        -2.072818         3.004393
 H         2.522079        -1.908046        -0.386782
