19
Iteration:  3977
 C         2.731515         1.075315        -0.129883
 C         1.690498         0.103109         0.010331
 C         0.592972        -0.329126        -0.950596
 C         0.426642        -1.295341         0.300854
 C         0.608525         0.058000         1.150907
 O         1.035023        -0.007344         2.560173
 C         1.721047        -1.322498         2.742525
 O         2.631205        -1.492781         1.709643
 C         1.962056        -1.423435         0.420070
 H         3.421911         0.843329         0.676542
 H         3.226908         0.902491        -1.101945
 H         2.387769         2.147476        -0.022785
 H        -0.205808         0.339450        -1.162470
 H         0.907384        -0.963733        -1.893336
 H        -0.432804        -2.021154         0.504422
 H        -0.235636         0.796193         1.160855
 H         2.342505        -1.229769         3.693467
 H         1.001515        -2.076888         3.078382
 H         2.562726        -2.103538        -0.287280
