19
Iteration:   290charge 0 multiplicity 1
 C         2.707760         1.071315        -0.102013
 C         1.660322         0.081551         0.090679
 C         0.613421        -0.351938        -0.926511
 C         0.340613        -1.254911         0.363289
 C         0.558690         0.003609         1.203032
 O         1.075665         0.013463         2.545200
 C         1.922898        -1.116495         2.742365
 O         2.525686        -1.716703         1.595881
 C         1.954857        -1.385904         0.387604
 H         3.281786         1.265305         0.770044
 H         3.407346         0.801749        -0.909159
 H         2.232200         1.961484        -0.478431
 H        -0.075503         0.467802        -1.254303
 H         0.954924        -0.871986        -1.816704
 H        -0.438856        -2.094259         0.255892
 H        -0.230695         0.742990         1.187261
 H         2.811180        -0.748451         3.332084
 H         1.441054        -1.776899         3.394499
 H         2.321292        -2.048996        -0.344752
