19
Iteration:  3011charge 0 multiplicity 1
 C         2.807293         1.082941        -0.197733
 C         1.690641         0.115564         0.049445
 C         0.556571        -0.275385        -0.888194
 C         0.396983        -1.231023         0.352198
 C         0.515317         0.056201         1.237080
 O         1.029714        -0.106817         2.520875
 C         1.705303        -1.359078         2.717314
 O         2.733136        -1.504226         1.740664
 C         1.954351        -1.386248         0.382328
 H         3.508792         1.256926         0.582083
 H         3.323773         0.583244        -1.077515
 H         2.274921         1.988026        -0.591615
 H        -0.296240         0.403957        -1.082962
 H         0.887688        -0.878647        -1.759334
 H        -0.383071        -1.984864         0.444313
 H        -0.194161         0.990526         1.120785
 H         2.223454        -1.380429         3.657884
 H         1.069283        -2.235561         2.673779
 H         2.300888        -1.980568        -0.479867
