19
Iteration:  3660charge 0 multiplicity 1
 C         2.831250         1.054820        -0.218606
 C         1.739649         0.119280         0.124888
 C         0.546006        -0.312172        -0.952038
 C         0.361982        -1.263107         0.389447
 C         0.534052         0.013821         1.225002
 O         0.980751        -0.066948         2.608855
 C         1.799544        -1.306261         2.742531
 O         2.641211        -1.504199         1.623634
 C         1.968323        -1.321544         0.347787
 H         3.290506         1.304031         0.770456
 H         3.605499         0.452166        -0.787030
 H         2.524841         1.923900        -0.924644
 H        -0.206897         0.378925        -1.321598
 H         0.966284        -1.005132        -1.710292
 H        -0.385867        -2.078540         0.659344
 H        -0.334182         0.628799         1.136926
 H         2.324522        -1.142249         3.713239
 H         1.019912        -2.167799         2.857019
 H         2.307840        -1.948669        -0.523080
