19
Iteration:    90charge 0 multiplicity 1
 C         2.694410         1.207132        -0.327724
 C         1.734355         0.135520         0.039832
 C         0.502017        -0.427576        -0.881816
 C         0.329227        -1.196255         0.432627
 C         0.680648         0.052369         1.198386
 O         1.106359        -0.023642         2.564238
 C         1.656516        -1.329472         2.762241
 O         2.621645        -1.684581         1.703041
 C         2.060779        -1.360861         0.400207
 H         3.358076         1.472615         0.529805
 H         3.314101         0.989262        -1.156196
 H         2.125954         2.144322        -0.560591
 H        -0.270935         0.268114        -1.167634
 H         0.804327        -1.081597        -1.747686
 H        -0.423009        -1.993142         0.713746
 H         0.087281         0.966752         1.052660
 H         2.294842        -1.331625         3.697108
 H         0.986119        -2.155578         2.711131
 H         2.616415        -1.902020        -0.334115
