19
Iteration:  1189charge 0 multiplicity 1
 C         2.736360         1.172256        -0.148464
 C         1.663817         0.058803         0.022911
 C         0.589851        -0.487052        -0.913602
 C         0.366963        -1.202815         0.479418
 C         0.651718         0.102166         1.231127
 O         1.013045        -0.108588         2.507222
 C         1.846494        -1.287530         2.685637
 O         2.629381        -1.517581         1.598732
 C         1.888404        -1.373734         0.412191
 H         3.629118         0.995536         0.456334
 H         3.009176         1.328426        -1.164943
 H         2.302579         2.178477         0.168809
 H        -0.163030         0.225616        -1.066240
 H         0.950307        -1.102287        -1.791441
 H        -0.265083        -2.041870         0.591034
 H        -0.081973         0.960937         1.230416
 H         2.444872        -1.023666         3.511432
 H         1.159334        -2.064490         2.965431
 H         2.245596        -2.205171        -0.335170
