19
Iteration:  2156
 C         2.788413         1.143949        -0.274361
 C         1.754898         0.101113         0.093105
 C         0.579568        -0.342374        -0.825036
 C         0.336095        -1.185159         0.379973
 C         0.623121         0.078439         1.250828
 O         0.952061        -0.204786         2.589103
 C         1.767376        -1.344863         2.667176
 O         2.698686        -1.504540         1.608623
 C         1.899768        -1.376453         0.432764
 H         3.415747         1.549852         0.580622
 H         3.327767         1.040310        -1.219886
 H         2.331193         2.077231        -0.742692
 H        -0.092525         0.402329        -1.196807
 H         0.905297        -0.989599        -1.641258
 H        -0.419637        -1.949566         0.382246
 H        -0.068378         0.944983         1.440568
 H         2.333809        -1.110592         3.628161
 H         1.003080        -2.223859         2.561987
 H         2.295350        -2.272543        -0.150563
