19
Iteration:  3466charge 0 multiplicity 1
 C         2.732413         1.115472        -0.099442
 C         1.700204         0.145093         0.065636
 C         0.539785        -0.372120        -0.856933
 C         0.365566        -1.242911         0.320788
 C         0.664359         0.101865         1.180826
 O         1.086223        -0.059528         2.605807
 C         1.748348        -1.236811         2.708361
 O         2.621729        -1.586700         1.569807
 C         1.946502        -1.476115         0.403213
 H         3.289718         1.455463         0.747007
 H         3.466308         0.823710        -0.846240
 H         2.409815         2.099335        -0.603758
 H        -0.268327         0.239372        -1.245447
 H         0.898392        -0.988672        -1.790653
 H        -0.497837        -1.938010         0.605118
 H        -0.279028         0.798826         1.099680
 H         2.308623        -1.313810         3.670826
 H         0.962306        -2.063965         2.720314
 H         2.454067        -2.166480        -0.339639
