19
Iteration:  4424charge 0 multiplicity 1
 C         2.646609         1.235059        -0.148377
 C         1.753642         0.109461         0.045894
 C         0.707058        -0.537655        -0.962056
 C         0.378813        -1.231237         0.356814
 C         0.554146         0.129399         1.105929
 O         1.254913         0.040790         2.446085
 C         1.572060        -1.246154         2.735312
 O         2.518633        -1.751692         1.771831
 C         2.047167        -1.373675         0.517548
 H         3.135872         1.372039         0.826771
 H         3.324909         1.226062        -0.952345
 H         1.957051         2.050082        -0.365352
 H        -0.080353         0.117523        -1.227337
 H         1.065639        -1.083517        -1.905361
 H        -0.285680        -2.041447         0.457410
 H        -0.238732         0.898554         0.959392
 H         2.098681        -1.289993         3.637625
 H         0.718821        -1.954934         2.974011
 H         2.455662        -1.926471        -0.208449
