19
Iteration:  2596charge 0 multiplicity 1
 C         2.640726         1.153301        -0.015225
 C         1.670815         0.138123         0.073597
 C         0.631794        -0.366251        -1.001442
 C         0.426115        -1.281744         0.321767
 C         0.584172         0.068334         1.165158
 O         1.195915         0.048070         2.533050
 C         1.781933        -1.220156         2.762993
 O         2.544762        -1.768329         1.644759
 C         1.928487        -1.419591         0.370937
 H         3.460670         1.206980         0.624262
 H         3.000609         1.426049        -1.051099
 H         2.154127         2.125980         0.220483
 H        -0.234949         0.311940        -1.276275
 H         1.008756        -1.020824        -1.866695
 H        -0.284437        -2.100174         0.436595
 H        -0.333105         0.764294         1.177168
 H         2.493156        -1.075607         3.613860
 H         1.006456        -1.933533         3.129999
 H         2.348138        -2.031609        -0.493710
