19
Iteration:  1981charge 0 multiplicity 1
 C         2.761739         1.133690        -0.263230
 C         1.694059         0.102122         0.045182
 C         0.601256        -0.321136        -0.883258
 C         0.322299        -1.236416         0.361248
 C         0.617085         0.039916         1.229686
 O         1.046973        -0.155071         2.612488
 C         1.760445        -1.370195         2.686978
 O         2.658701        -1.443033         1.649855
 C         1.910962        -1.397330         0.421082
 H         3.566297         1.375743         0.487569
 H         3.380130         0.798035        -1.120322
 H         2.303430         2.125121        -0.489454
 H        -0.148214         0.478112        -0.885756
 H         0.803441        -0.791485        -1.859164
 H        -0.532128        -1.780395         0.575514
 H        -0.067597         0.871964         1.401181
 H         2.320902        -1.466977         3.600273
 H         1.069470        -2.244785         2.577962
 H         2.434020        -2.184636        -0.160607
