19
Iteration:  2187
 C         2.798860         1.155935        -0.214176
 C         1.629690         0.228522         0.009351
 C         0.478777        -0.373576        -0.926609
 C         0.483646        -1.275178         0.403125
 C         0.615250         0.050312         1.229815
 O         1.117454        -0.092644         2.547714
 C         1.696172        -1.371528         2.702611
 O         2.615889        -1.591823         1.680180
 C         1.969355        -1.274525         0.400644
 H         3.486462         0.981051         0.674218
 H         3.364853         0.734693        -1.120627
 H         2.287153         2.128898        -0.218226
 H        -0.384575         0.335991        -1.178096
 H         0.885071        -0.976937        -1.723633
 H        -0.153236        -2.179289         0.555993
 H        -0.241748         0.771882         1.339208
 H         2.082463        -1.404364         3.767695
 H         0.846108        -2.151825         2.815695
 H         2.471463        -1.944392        -0.322495
