19
Iteration:  2896charge 0 multiplicity 1
 C         2.608169         1.306926        -0.155955
 C         1.754417         0.116420         0.005484
 C         0.586009        -0.481092        -0.961473
 C         0.412224        -1.181899         0.368663
 C         0.719874         0.103554         1.206121
 O         1.170336        -0.050367         2.573385
 C         1.662969        -1.340971         2.736592
 O         2.571447        -1.682235         1.670280
 C         1.918148        -1.413406         0.385282
 H         3.199926         1.609485         0.794904
 H         3.487702         1.144174        -0.841361
 H         2.082390         2.225111        -0.400187
 H        -0.156529         0.288922        -1.380895
 H         1.112111        -1.181361        -1.664559
 H        -0.391482        -1.921919         0.702472
 H         0.040360         0.893772         1.199606
 H         2.107444        -1.460477         3.778871
 H         0.747459        -2.013511         2.708514
 H         2.399100        -2.161793        -0.319101
