19
Iteration:  4054charge 0 multiplicity 1
 C         2.722283         1.220005        -0.205809
 C         1.803058         0.103230         0.076891
 C         0.596195        -0.352834        -0.926428
 C         0.438281        -1.328404         0.347585
 C         0.560746         0.066210         1.198095
 O         1.094974         0.036928         2.475431
 C         1.724023        -1.317972         2.730334
 O         2.549899        -1.656141         1.740310
 C         1.982750        -1.415332         0.467703
 H         3.139774         1.545011         0.757226
 H         3.555449         0.893154        -0.834893
 H         2.210008         2.038586        -0.802354
 H        -0.178282         0.340434        -1.012703
 H         0.855837        -0.812661        -1.960952
 H        -0.440734        -2.071477         0.304468
 H        -0.279170         0.808941         1.118185
 H         2.122559        -1.382107         3.775660
 H         0.817660        -1.951612         2.715984
 H         2.391231        -2.181498        -0.274288
