19
Iteration:  1884charge 0 multiplicity 1
 C         2.719676         1.450609        -0.068283
 C         1.732651         0.080445         0.051480
 C         0.541253        -0.450465        -0.953434
 C         0.315862        -1.266850         0.427024
 C         0.707715         0.015633         1.145579
 O         1.125156        -0.034952         2.480001
 C         1.844203        -1.213973         2.745631
 O         2.522611        -1.814780         1.642836
 C         1.883637        -1.433949         0.388630
 H         3.382963         1.654004         0.777082
 H         3.470117         1.323531        -0.844967
 H         2.112281         2.353345        -0.287671
 H        -0.140728         0.415995        -1.060233
 H         0.866361        -1.021240        -1.887857
 H        -0.444057        -1.954594         0.593851
 H        -0.138665         0.682857         1.233110
 H         2.572770        -0.967182         3.471009
 H         1.129065        -1.951430         3.068549
 H         2.319468        -2.110635        -0.376858
