19
Iteration:  3320
 C         2.853893         1.061467        -0.176609
 C         1.630945         0.205237         0.037394
 C         0.534230        -0.318239        -0.922157
 C         0.397361        -1.263671         0.356072
 C         0.477646         0.029306         1.178055
 O         1.094802        -0.103711         2.522072
 C         1.770271        -1.323292         2.763628
 O         2.664328        -1.569541         1.655387
 C         1.921767        -1.308151         0.423461
 H         3.572602         1.282263         0.673727
 H         3.575749         0.544534        -0.811509
 H         2.736704         2.051438        -0.517154
 H        -0.434882         0.312014        -0.873657
 H         0.658705        -0.679531        -1.924824
 H        -0.236831        -2.084087         0.633130
 H        -0.383883         0.669637         1.411470
 H         2.341454        -1.183286         3.665510
 H         1.088711        -2.122772         2.761708
 H         2.336822        -1.989667        -0.284442
