19
Iteration:  3687charge 0 multiplicity 1
 C         2.808242         1.066767        -0.277482
 C         1.692386         0.183465         0.159146
 C         0.533194        -0.311781        -0.884364
 C         0.390243        -1.352349         0.328187
 C         0.576580         0.099902         1.208530
 O         1.037533        -0.083320         2.534475
 C         1.767690        -1.333969         2.689346
 O         2.624826        -1.553576         1.714389
 C         1.975702        -1.320756         0.440328
 H         3.407907         1.434457         0.586956
 H         3.541470         0.465110        -0.792355
 H         2.487593         1.916045        -0.863222
 H        -0.393206         0.274864        -1.096232
 H         0.894604        -0.807443        -1.767381
 H        -0.410141        -2.091105         0.364448
 H        -0.388581         0.713188         1.198424
 H         2.286890        -1.168107         3.620151
 H         1.025736        -2.121169         2.684107
 H         2.457112        -1.780175        -0.380251
