19
Iteration:  1867
 C         2.743974         1.307855        -0.114069
 C         1.800548         0.126381         0.005404
 C         0.499231        -0.490583        -0.906097
 C         0.388038        -1.158808         0.398361
 C         0.605993         0.159843         1.156227
 O         1.041693        -0.100578         2.545247
 C         1.820403        -1.322676         2.747498
 O         2.592720        -1.701777         1.599925
 C         1.936192        -1.417955         0.391597
 H         3.064932         1.442742         0.942141
 H         3.559789         1.204007        -0.878251
 H         1.975904         2.091212        -0.276225
 H        -0.324152         0.137724        -1.228318
 H         0.774713        -1.214603        -1.650916
 H        -0.440843        -1.902102         0.772748
 H         0.003554         1.101787         1.120405
 H         2.635392        -1.074133         3.526866
 H         1.183547        -2.237738         3.014298
 H         2.320269        -2.145664        -0.323641
