19
Iteration:   818charge 0 multiplicity 1
 C         2.722959         1.220778        -0.207464
 C         1.736004         0.072390         0.036847
 C         0.567979        -0.414179        -0.895612
 C         0.218846        -1.187296         0.333313
 C         0.659814         0.027608         1.232836
 O         1.082151        -0.037607         2.533298
 C         1.782797        -1.211874         2.744906
 O         2.718399        -1.647760         1.615377
 C         1.873426        -1.437399         0.464991
 H         3.489395         1.133232         0.625650
 H         3.249511         1.204823        -1.124288
 H         2.232709         2.209010         0.024760
 H        -0.184917         0.327607        -1.220426
 H         0.859708        -1.228208        -1.679196
 H        -0.665833        -1.956802         0.377395
 H        -0.073763         0.878107         1.225544
 H         2.514412        -1.105583         3.578990
 H         1.219210        -2.135721         2.937267
 H         2.246674        -2.183125        -0.150345
