19
Iteration:   520charge 0 multiplicity 1
 C         2.784532         1.243423        -0.292850
 C         1.707350         0.085108         0.068078
 C         0.557177        -0.374210        -0.945113
 C         0.356724        -1.200314         0.353354
 C         0.560610         0.047375         1.208341
 O         1.013676        -0.076956         2.615851
 C         1.922064        -1.194396         2.810196
 O         2.579561        -1.737325         1.656190
 C         1.919833        -1.410480         0.373787
 H         3.055361         1.641599         0.639962
 H         3.650834         0.968824        -0.944076
 H         2.182157         1.977339        -0.772617
 H        -0.323414         0.325458        -1.133919
 H         0.877590        -1.000404        -1.746339
 H        -0.437739        -2.020585         0.439452
 H        -0.205071         0.802765         1.297414
 H         2.686208        -0.953124         3.568011
 H         1.378862        -2.053567         3.200888
 H         2.376124        -2.005784        -0.314610
