19
Iteration:   452charge 0 multiplicity 1
 C         2.751990         1.104280        -0.035804
 C         1.671880         0.068485        -0.006248
 C         0.514137        -0.485046        -0.913027
 C         0.334779        -1.276434         0.479760
 C         0.633205         0.143285         1.182559
 O         1.174616         0.004511         2.438500
 C         1.740629        -1.312696         2.686329
 O         2.671157        -1.549518         1.612238
 C         1.863183        -1.334848         0.423001
 H         3.324583         1.028216         0.864128
 H         3.408065         1.276119        -0.930717
 H         2.114646         2.026339        -0.087345
 H        -0.427494         0.022690        -1.214606
 H         0.974923        -1.052871        -1.713147
 H        -0.363404        -2.046746         0.817384
 H         0.044507         1.099023         1.026993
 H         2.349499        -1.402924         3.554420
 H         1.028509        -2.145425         2.856611
 H         2.335321        -1.946706        -0.295862
