19
Iteration:   372charge 0 multiplicity 1
 C         2.710865         1.230179        -0.385147
 C         1.690358         0.169875        -0.017457
 C         0.596931        -0.372950        -0.935882
 C         0.432565        -1.170912         0.391049
 C         0.615642         0.133649         1.228010
 O         1.095480        -0.086024         2.565462
 C         1.808495        -1.323398         2.825500
 O         2.622086        -1.748532         1.757750
 C         1.844047        -1.416225         0.434289
 H         3.340913         1.486436         0.533084
 H         3.265652         0.924862        -1.255291
 H         2.092982         2.173280        -0.494198
 H        -0.151324         0.370710        -1.138753
 H         0.975162        -0.922933        -1.879435
 H        -0.216179        -1.968024         0.498422
 H        -0.355672         0.723996         1.307432
 H         2.494222        -1.183815         3.675711
 H         0.887241        -1.966807         2.840391
 H         2.237874        -2.273396        -0.243276
