19
Iteration:  1245charge 0 multiplicity 1
 C         2.654137         1.174569        -0.172619
 C         1.589928         0.126956         0.151971
 C         0.623621        -0.339039        -0.812466
 C         0.418415        -1.318673         0.428349
 C         0.624969        -0.002930         1.166653
 O         1.205924         0.031775         2.479862
 C         1.706945        -1.238501         2.711847
 O         2.581283        -1.672721         1.592212
 C         2.007475        -1.407546         0.412065
 H         3.281132         1.504990         0.611851
 H         3.200048         0.827990        -1.064354
 H         2.058945         2.083578        -0.520846
 H        -0.285132         0.164350        -1.053735
 H         1.191983        -0.599802        -1.748190
 H        -0.416635        -2.045623         0.533894
 H        -0.394234         0.534662         1.116049
 H         2.323802        -1.269353         3.587977
 H         0.899107        -1.970139         2.812196
 H         2.481210        -1.896422        -0.560610
