19
Iteration:  1062
 C         2.691480         1.279146        -0.206222
 C         1.624766         0.199931         0.044854
 C         0.492147        -0.407065        -0.852583
 C         0.503667        -1.335016         0.367774
 C         0.628732         0.128058         1.198697
 O         1.093871         0.057514         2.568096
 C         1.766054        -1.242257         2.762696
 O         2.586810        -1.846890         1.619314
 C         2.000867        -1.426323         0.369544
 H         3.311005         1.481607         0.637242
 H         3.452812         0.656605        -0.772880
 H         2.513129         2.231239        -0.745225
 H        -0.436884         0.236096        -0.969917
 H         0.742267        -0.725933        -1.898449
 H        -0.232473        -2.221225         0.621969
 H        -0.276660         0.714935         1.253149
 H         2.520012        -1.078800         3.523572
 H         1.000088        -2.022905         3.022090
 H         2.458099        -1.984052        -0.392494
