19
Iteration:  4081
 C         2.648129         1.306855        -0.130082
 C         1.788345         0.160984         0.050429
 C         0.605628        -0.572990        -0.899034
 C         0.449248        -1.268069         0.430009
 C         0.694124         0.197437         1.091799
 O         1.139929         0.030450         2.476194
 C         1.620577        -1.318875         2.814112
 O         2.486774        -1.763730         1.647063
 C         2.019585        -1.395130         0.423878
 H         3.153774         1.495241         0.834541
 H         3.433450         1.092915        -0.885554
 H         2.089305         2.143604        -0.486464
 H        -0.180958         0.109339        -1.451739
 H         1.074562        -1.122809        -1.669578
 H        -0.319989        -1.964957         0.600468
 H        -0.089709         0.943325         1.041673
 H         2.166206        -1.304853         3.765949
 H         0.714849        -1.985204         2.741714
 H         2.461547        -1.981545        -0.341748
