19
Iteration:  2594
 C         2.643386         1.154922        -0.026002
 C         1.645721         0.140256         0.066165
 C         0.635802        -0.356689        -0.999368
 C         0.419530        -1.289811         0.312685
 C         0.591745         0.047568         1.174388
 O         1.218080         0.043733         2.529824
 C         1.769181        -1.210624         2.783465
 O         2.546039        -1.768154         1.652297
 C         1.923417        -1.412864         0.360387
 H         3.511751         1.216169         0.654091
 H         2.996423         1.426507        -1.024090
 H         2.153310         2.131685         0.234740
 H        -0.218953         0.260372        -1.254825
 H         1.055922        -0.986132        -1.877380
 H        -0.266165        -2.097206         0.406231
 H        -0.301727         0.734868         1.085698
 H         2.489149        -1.073695         3.663921
 H         0.956180        -1.922933         3.137994
 H         2.291600        -1.958895        -0.507962
