19
Iteration:  1907
 C         2.542677         1.190785        -0.086458
 C         1.640465         0.097668         0.114898
 C         0.624161        -0.322755        -0.962994
 C         0.426012        -1.273898         0.273857
 C         0.583243         0.040014         1.178674
 O         1.287806         0.080537         2.491684
 C         1.819186        -1.237347         2.789531
 O         2.473752        -1.823316         1.648175
 C         1.971598        -1.406276         0.414768
 H         3.243677         1.284338         0.685907
 H         3.246078         1.062001        -0.848773
 H         2.053158         2.198777        -0.179422
 H        -0.286590         0.294960        -0.959738
 H         1.111274        -0.588790        -1.970538
 H        -0.277239        -2.074398         0.311624
 H        -0.306209         0.639285         1.334776
 H         2.652418        -1.109449         3.474556
 H         1.012061        -1.891720         3.074351
 H         2.514992        -1.976768        -0.335925
