19
Iteration:  1568
 C         2.690930         1.350827        -0.107569
 C         1.715800         0.085273         0.003318
 C         0.524102        -0.528698        -0.922052
 C         0.366109        -1.162893         0.490891
 C         0.637314         0.146565         1.166053
 O         1.113176        -0.054749         2.524447
 C         1.759768        -1.274673         2.659174
 O         2.633728        -1.720082         1.619516
 C         2.008261        -1.461542         0.427538
 H         3.304341         1.274441         0.802844
 H         3.168623         1.538773        -1.029306
 H         2.009423         2.175453         0.167731
 H        -0.203923         0.195690        -1.229166
 H         0.656322        -1.275384        -1.671762
 H        -0.460678        -1.988200         0.497933
 H        -0.085797         0.965066         1.046473
 H         2.352153        -1.121325         3.546221
 H         0.944782        -2.089479         2.781532
 H         2.379657        -2.122453        -0.332166
