19
Iteration:  4914charge 0 multiplicity 1
 C         2.699185         1.177185        -0.176416
 C         1.716252         0.121430         0.035075
 C         0.672503        -0.428335        -0.954876
 C         0.349857        -1.247179         0.381045
 C         0.632302         0.059311         1.145894
 O         1.142042         0.014843         2.449000
 C         1.726507        -1.265272         2.768924
 O         2.501128        -1.665949         1.749171
 C         1.974407        -1.409676         0.477282
 H         3.366696         1.315818         0.710746
 H         3.425253         1.243257        -0.995876
 H         2.201940         2.159910        -0.228172
 H        -0.149820         0.271589        -1.198784
 H         1.045280        -1.066879        -1.907821
 H        -0.351709        -2.082798         0.443274
 H        -0.167211         0.810988         1.111795
 H         2.259034        -1.317742         3.687003
 H         0.862015        -1.905405         2.828825
 H         2.401045        -2.083713        -0.249394
