19
Iteration:  1011charge 0 multiplicity 1
 C         2.710147         1.185653        -0.194655
 C         1.691119         0.063007        -0.017104
 C         0.583123        -0.410176        -0.927388
 C         0.277496        -1.212960         0.374283
 C         0.598122         0.090210         1.226539
 O         1.023091        -0.025597         2.591185
 C         1.884648        -1.293751         2.705202
 O         2.716740        -1.562846         1.617700
 C         1.850318        -1.495909         0.472886
 H         3.438064         1.106992         0.683636
 H         3.368513         1.322273        -1.067649
 H         2.305363         2.156035         0.018869
 H        -0.186923         0.333340        -1.209234
 H         0.883482        -0.979648        -1.783102
 H        -0.486109        -1.925120         0.422618
 H         0.010375         1.027799         1.267710
 H         2.553325        -1.290773         3.631495
 H         1.200649        -2.198161         2.765834
 H         2.369156        -2.232522        -0.255810
