19
Iteration:  2595charge 0 multiplicity 1
 C         2.641789         1.152337        -0.020266
 C         1.657948         0.140121         0.069862
 C         0.633876        -0.360644        -1.000646
 C         0.422820        -1.286373         0.317090
 C         0.588402         0.057603         1.169915
 O         1.207734         0.045839         2.531879
 C         1.775024        -1.214990         2.773317
 O         2.545678        -1.768441         1.648833
 C         1.925760        -1.416172         0.365227
 H         3.483638         1.215960         0.636240
 H         2.998159         1.430048        -1.037766
 H         2.154162         2.130033         0.227724
 H        -0.228583         0.285857        -1.265280
 H         1.035631        -1.008736        -1.877767
 H        -0.271158        -2.095917         0.420033
 H        -0.322871         0.751460         1.127658
 H         2.493275        -1.073704         3.644718
 H         0.978433        -1.928668         3.137422
 H         2.316146        -1.994048        -0.505302
