19
Iteration:   535
 C         2.701758         1.277538        -0.321874
 C         1.774999         0.167545         0.060120
 C         0.618848        -0.473467        -0.863937
 C         0.334707        -1.255901         0.388974
 C         0.690754         0.127417         1.237652
 O         0.961903        -0.127208         2.618182
 C         1.868460        -1.271793         2.789145
 O         2.543521        -1.718899         1.572252
 C         1.878025        -1.369978         0.446999
 H         3.391319         1.834217         0.462576
 H         3.430909         0.773134        -0.942596
 H         2.213099         2.131739        -0.899008
 H         0.042357         0.321108        -1.333531
 H         1.001457        -0.943409        -1.880760
 H        -0.389215        -2.166410         0.727175
 H        -0.030221         1.000134         1.188084
 H         2.673912        -0.789016         3.429133
 H         1.245608        -1.968815         3.313941
 H         2.349446        -2.062808        -0.457370
