19
Iteration:  3549
 C         2.708028         1.291950        -0.188750
 C         1.743527         0.096846         0.040700
 C         0.598703        -0.368129        -0.961425
 C         0.373037        -1.236014         0.469430
 C         0.690280         0.102507         1.189707
 O         1.063473        -0.040800         2.489264
 C         1.713101        -1.323698         2.796768
 O         2.588006        -1.712496         1.655909
 C         1.933829        -1.438008         0.384789
 H         3.650936         1.400681         0.445044
 H         3.125808         1.137244        -1.238871
 H         2.062687         2.180158        -0.142429
 H        -0.239709         0.317072        -1.202266
 H         0.989084        -0.943313        -1.741761
 H        -0.440404        -1.870957         0.774218
 H        -0.053930         0.840920         1.224707
 H         2.341200        -1.275657         3.685669
 H         0.952579        -2.042447         2.763803
 H         2.497614        -2.182562        -0.172218
