19
Iteration:  4733
 C         2.817170         1.154244        -0.189619
 C         1.696375         0.090079        -0.030302
 C         0.616119        -0.439168        -0.971250
 C         0.381445        -1.230695         0.374669
 C         0.568687         0.060128         1.179891
 O         1.022941        -0.025361         2.462576
 C         1.743424        -1.251055         2.823763
 O         2.582534        -1.625959         1.768878
 C         1.954213        -1.409209         0.397948
 H         3.508333         1.148312         0.692931
 H         3.376516         1.309346        -1.172730
 H         2.172476         2.121679        -0.158744
 H        -0.121854         0.400277        -1.363627
 H         1.052161        -1.067856        -1.751010
 H        -0.339844        -2.016442         0.716455
 H        -0.162596         0.915391         1.241335
 H         2.272608        -1.060052         3.857771
 H         0.904270        -2.055623         2.926190
 H         2.752310        -1.951715        -0.221067
