19
Iteration:  4582charge 0 multiplicity 1
 C         2.682169         1.245065        -0.141838
 C         1.716322         0.084729         0.033251
 C         0.691145        -0.414712        -0.964102
 C         0.526507        -1.301571         0.387026
 C         0.576611         0.061746         1.137178
 O         1.086243         0.093480         2.450065
 C         1.709867        -1.208862         2.756527
 O         2.505374        -1.764676         1.751963
 C         1.915358        -1.399905         0.426247
 H         3.483704         1.139784         0.523904
 H         3.147478         0.926362        -1.069668
 H         2.372383         2.244784        -0.083038
 H        -0.182455         0.218358        -1.268395
 H         1.233337        -0.939941        -1.651414
 H        -0.106349        -2.264516         0.595233
 H        -0.233119         0.809107         1.113970
 H         2.274285        -1.165027         3.768581
 H         0.811719        -1.921267         2.991131
 H         2.350215        -2.087086        -0.271859
