19
Iteration:  3282
 C         2.771895         1.328910        -0.091515
 C         1.757720         0.107065         0.063149
 C         0.596464        -0.468277        -0.907679
 C         0.370399        -1.279334         0.391294
 C         0.615065         0.080322         1.151636
 O         1.146486        -0.023142         2.584615
 C         1.759417        -1.250636         2.731850
 O         2.536030        -1.677261         1.598064
 C         1.884791        -1.446783         0.358281
 H         3.215194         1.466385         0.857858
 H         3.389950         1.065633        -0.988720
 H         2.090467         2.161808        -0.462852
 H        -0.146206         0.312145        -1.054606
 H         0.915071        -0.820028        -1.938139
 H        -0.425479        -2.049037         0.572577
 H        -0.206654         0.792816         1.084684
 H         2.408707        -1.307968         3.634496
 H         0.986982        -2.027661         2.891309
 H         2.221796        -2.226860        -0.388480
