19
Iteration:  2915charge 0 multiplicity 1
 C         2.652264         1.292347        -0.075924
 C         1.751206         0.166252        -0.046307
 C         0.636724        -0.464840        -0.945318
 C         0.368520        -1.310120         0.419607
 C         0.654138         0.102473         1.174047
 O         1.231138         0.061715         2.536051
 C         1.654757        -1.355864         2.717221
 O         2.487421        -1.702510         1.662916
 C         1.988497        -1.433075         0.414952
 H         3.188248         1.329429         0.865574
 H         3.450285         1.401861        -0.915749
 H         2.001075         2.146897        -0.154886
 H        -0.243222         0.227768        -1.135918
 H         0.827889        -1.037905        -1.797951
 H        -0.468542        -2.080005         0.512673
 H        -0.146088         0.894150         1.077408
 H         2.409825        -1.388642         3.519603
 H         0.957496        -2.139677         2.807703
 H         2.492318        -2.049891        -0.367252
