19
Iteration:   793charge 0 multiplicity 1
 C         2.608477         1.095438        -0.229615
 C         1.659081         0.084602         0.114943
 C         0.674897        -0.286812        -0.950954
 C         0.373508        -1.245563         0.459400
 C         0.602649         0.065791         1.196587
 O         1.119055        -0.000780         2.486050
 C         1.789653        -1.290512         2.755163
 O         2.596434        -1.671260         1.625231
 C         1.924396        -1.389912         0.438375
 H         3.524233         1.063195         0.456181
 H         2.981605         0.929290        -1.281346
 H         2.160146         2.097085        -0.130981
 H        -0.233360         0.335773        -1.090368
 H         1.025189        -0.805543        -1.825220
 H        -0.405616        -1.890088         0.742583
 H        -0.167431         0.883961         1.097782
 H         2.640853        -1.097607         3.518420
 H         1.218399        -2.181137         3.063279
 H         2.649189        -1.962287        -0.244161
