19
Iteration:  4299
 C         2.806027         1.278409        -0.138586
 C         1.734334         0.158664         0.004258
 C         0.589920        -0.474422        -0.910091
 C         0.450479        -1.330896         0.330427
 C         0.635324         0.089642         1.098414
 O         1.075978         0.066173         2.441285
 C         1.676181        -1.260688         2.708586
 O         2.519367        -1.766895         1.798287
 C         1.969446        -1.412139         0.486358
 H         3.376933         1.427634         0.800542
 H         3.496025         1.002642        -1.011815
 H         2.247372         2.232056        -0.145940
 H        -0.248535         0.349760        -1.017113
 H         0.759051        -1.010959        -1.825535
 H        -0.311970        -2.057210         0.684048
 H        -0.156842         0.799956         0.959727
 H         2.178836        -1.053751         3.682033
 H         0.796760        -1.966483         2.833321
 H         2.433292        -2.080856        -0.252312
