19
Iteration:  3416
 C         2.585494         1.314394        -0.150399
 C         1.680605         0.221841         0.041256
 C         0.660516        -0.455241        -0.864501
 C         0.450754        -1.254550         0.402762
 C         0.663363         0.046928         1.251402
 O         1.220425         0.065015         2.488971
 C         1.686790        -1.282980         2.738529
 O         2.475235        -1.852918         1.643453
 C         1.961115        -1.449074         0.335682
 H         3.427825         1.266875         0.615336
 H         3.380932         1.236480        -1.003514
 H         2.323404         2.357492        -0.022771
 H        -0.273800         0.131958        -1.161030
 H         0.879121        -0.815995        -1.813727
 H        -0.290580        -2.071569         0.556379
 H         0.005689         0.801551         0.982203
 H         2.425368        -1.058315         3.497655
 H         0.688370        -1.853810         3.083116
 H         2.474611        -2.073225        -0.415525
