19
Iteration:   658charge 0 multiplicity 1
 C         2.680413         1.109992        -0.175987
 C         1.643078         0.061069         0.081795
 C         0.532810        -0.352812        -0.888755
 C         0.362017        -1.282491         0.274431
 C         0.671271         0.072518         1.223371
 O         1.041564         0.050873         2.595515
 C         1.924205        -1.143431         2.775318
 O         2.570221        -1.734530         1.581963
 C         1.944589        -1.465235         0.404122
 H         3.339445         1.148441         0.693361
 H         3.342286         0.948635        -1.089701
 H         2.210497         2.126223        -0.145189
 H        -0.153104         0.462621        -1.092687
 H         0.990993        -0.718740        -1.831138
 H        -0.442329        -2.009232         0.406525
 H        -0.192884         0.712229         1.091154
 H         2.669632        -0.802092         3.420223
 H         1.282453        -1.848784         3.321795
 H         2.494227        -2.063973        -0.451262
