19
Iteration:   987charge 0 multiplicity 1
 C         2.723913         1.145963        -0.108865
 C         1.642354         0.150537         0.053251
 C         0.517344        -0.462055        -0.851745
 C         0.406901        -1.255862         0.506809
 C         0.659563         0.065393         1.149195
 O         1.116626        -0.058634         2.474135
 C         1.710459        -1.272409         2.692593
 O         2.599729        -1.561362         1.616953
 C         1.988314        -1.374343         0.348636
 H         3.584285         1.101852         0.543785
 H         3.104266         0.988079        -1.167929
 H         2.491341         2.199558        -0.049242
 H        -0.352335         0.269828        -0.992059
 H         0.695362        -1.066746        -1.750183
 H        -0.370660        -2.038939         0.767074
 H         0.080132         0.958019         1.206693
 H         2.352624        -1.286326         3.600518
 H         1.070524        -2.168476         2.795429
 H         2.531042        -1.983608        -0.398622
