19
Iteration:  3700charge 0 multiplicity 1
 C         2.823666         1.193633        -0.236232
 C         1.697414         0.132410         0.047692
 C         0.521255        -0.428980        -0.861384
 C         0.421933        -1.218052         0.392521
 C         0.615982         0.012830         1.200736
 O         1.029635        -0.033232         2.531926
 C         1.682500        -1.362546         2.772210
 O         2.616211        -1.592674         1.651898
 C         1.964408        -1.333750         0.371367
 H         3.381583         1.510081         0.699791
 H         3.440825         0.750222        -1.044819
 H         2.404764         2.003480        -0.746381
 H        -0.240841         0.429962        -1.053023
 H         0.866817        -0.861058        -1.776562
 H        -0.121687        -2.075340         0.724770
 H        -0.097829         0.866385         1.125605
 H         2.250937        -1.381951         3.716230
 H         0.912279        -2.117992         2.935593
 H         2.575776        -2.036733        -0.270841
