19
Iteration:  4370
 C         2.889136         1.081713        -0.244342
 C         1.789547         0.070099        -0.006929
 C         0.614704        -0.416370        -0.963373
 C         0.309243        -1.192588         0.380379
 C         0.628485         0.024581         1.151411
 O         0.855141        -0.105305         2.559185
 C         1.750465        -1.230041         2.777989
 O         2.637595        -1.526435         1.759729
 C         1.927678        -1.311236         0.425794
 H         3.476012         1.148759         0.666327
 H         3.476553         0.712910        -0.978361
 H         2.530632         2.067897        -0.309307
 H        -0.022657         0.312399        -1.239308
 H         0.897151        -1.151470        -1.777574
 H        -0.332875        -2.026599         0.480219
 H        -0.252281         0.747165         1.005080
 H         2.342408        -1.055869         3.661967
 H         0.988851        -2.068305         2.873114
 H         2.529300        -1.871999        -0.238262
