19
Iteration:  3194charge 0 multiplicity 1
 C         2.826556         1.127734        -0.239382
 C         1.716492         0.162286         0.000231
 C         0.502475        -0.334261        -0.913249
 C         0.372338        -1.177138         0.383859
 C         0.614197         0.104621         1.227117
 O         0.979885        -0.145034         2.519297
 C         1.816919        -1.337420         2.710304
 O         2.641794        -1.685437         1.742859
 C         1.948842        -1.300862         0.427684
 H         3.498868         1.326401         0.580811
 H         3.455530         1.028321        -1.142644
 H         2.356030         2.173941        -0.437211
 H        -0.383260         0.269273        -0.920304
 H         0.757301        -0.958212        -1.841803
 H        -0.324356        -2.034568         0.458520
 H        -0.111488         0.871724         1.291909
 H         2.236314        -1.244207         3.703235
 H         1.052446        -2.117486         2.823864
 H         2.376840        -1.953032        -0.372818
