19
Iteration:  1407charge 0 multiplicity 1
 C         2.676426         1.261416        -0.187266
 C         1.675549         0.116219         0.014950
 C         0.566980        -0.350894        -0.940631
 C         0.400990        -1.282445         0.360114
 C         0.600813         0.023493         1.184926
 O         1.129417        -0.018601         2.514905
 C         1.820590        -1.275781         2.816344
 O         2.588006        -1.725914         1.675256
 C         1.920722        -1.395597         0.421347
 H         3.562024         1.210876         0.436239
 H         2.938638         1.382848        -1.236604
 H         2.288360         2.339063        -0.009015
 H        -0.275326         0.290927        -1.275411
 H         0.976625        -1.026766        -1.780573
 H        -0.359235        -2.026421         0.598628
 H        -0.149833         0.814387         1.226707
 H         2.514763        -1.104560         3.616461
 H         1.061180        -2.035345         3.091625
 H         2.454874        -2.077188        -0.254204
