19
Iteration:   674
 C         2.792275         1.207699        -0.160054
 C         1.750006         0.147977         0.081586
 C         0.499173        -0.366624        -0.838665
 C         0.400749        -1.321514         0.367744
 C         0.554515         0.044006         1.191619
 O         1.056808        -0.038410         2.503537
 C         1.883449        -1.096556         2.791619
 O         2.540120        -1.788629         1.644930
 C         1.906992        -1.392612         0.316691
 H         3.568262         1.408118         0.609839
 H         3.322150         0.773734        -1.002613
 H         2.366191         2.101159        -0.580491
 H        -0.480102         0.176283        -0.992368
 H         0.568996        -0.848393        -1.823196
 H        -0.247700        -2.232628         0.565826
 H        -0.131115         0.930762         1.171584
 H         2.812565        -0.809096         3.432589
 H         1.359806        -1.972236         3.205961
 H         2.295112        -1.950948        -0.473729
