19
Iteration:  4811
 C         2.747705         1.243937        -0.211887
 C         1.775189         0.071206         0.002021
 C         0.644560        -0.466856        -0.912076
 C         0.423206        -1.257119         0.400871
 C         0.693326         0.067694         1.169819
 O         1.003915        -0.024777         2.528755
 C         1.650736        -1.232905         2.749911
 O         2.539897        -1.662117         1.699029
 C         1.934971        -1.403977         0.428118
 H         3.345376         1.492013         0.691699
 H         3.497125         1.100966        -1.034986
 H         2.223412         2.226941        -0.439304
 H        -0.270740         0.090432        -1.358379
 H         1.257900        -0.934312        -1.651568
 H        -0.478297        -1.875191         0.700627
 H        -0.042327         0.895928         1.179433
 H         2.438342        -1.112340         3.560532
 H         0.935101        -1.983193         2.876047
 H         2.387898        -2.161106        -0.194984
