19
Iteration:  1825charge 0 multiplicity 1
 C         2.871280         1.041739        -0.236701
 C         1.678752         0.175039         0.119573
 C         0.491453        -0.330168        -0.795164
 C         0.413901        -1.330842         0.296682
 C         0.490337        -0.005120         1.303232
 O         1.122383        -0.055706         2.563769
 C         1.710787        -1.308681         2.668745
 O         2.657727        -1.503491         1.659463
 C         1.948069        -1.321840         0.408558
 H         3.679076         1.497499         0.464747
 H         3.339277         0.648049        -1.251305
 H         2.498756         2.015817        -0.603874
 H        -0.403400         0.389180        -0.957433
 H         0.677028        -0.732747        -1.800860
 H        -0.155829        -2.242828        -0.083127
 H        -0.549997         0.444407         1.215564
 H         2.241325        -1.397419         3.654533
 H         0.906385        -1.979245         2.622477
 H         2.469447        -1.715878        -0.505514
