19
Iteration:   368
 C         2.679552         1.238220        -0.350284
 C         1.718782         0.121326         0.006623
 C         0.613064        -0.375983        -0.939559
 C         0.416339        -1.156977         0.367760
 C         0.586022         0.138235         1.234686
 O         1.110716        -0.063014         2.558980
 C         1.803577        -1.344523         2.787782
 O         2.625786        -1.705501         1.734107
 C         1.861005        -1.452419         0.452701
 H         3.298519         1.427496         0.490361
 H         3.335792         0.914038        -1.202087
 H         2.152629         2.139009        -0.547544
 H        -0.214328         0.357769        -1.144355
 H         0.849904        -0.986996        -1.767106
 H        -0.313259        -2.025685         0.523366
 H        -0.177902         0.869903         1.349745
 H         2.411415        -1.275960         3.699159
 H         0.899154        -1.938972         2.921377
 H         2.273391        -2.183405        -0.231169
