19
Iteration:  2660
 C         2.829577         1.051817        -0.228004
 C         1.678269         0.152960         0.104700
 C         0.563495        -0.286186        -0.838860
 C         0.348930        -1.335903         0.289786
 C         0.568389         0.018637         1.263240
 O         1.048917        -0.075782         2.604286
 C         1.689408        -1.305148         2.756597
 O         2.663027        -1.518379         1.596857
 C         2.001828        -1.307189         0.366716
 H         3.356166         1.323064         0.708520
 H         3.443870         0.370587        -0.879888
 H         2.341989         1.946395        -0.709685
 H        -0.232604         0.379993        -1.126791
 H         1.020138        -0.844900        -1.735825
 H        -0.414872        -2.079015         0.366436
 H        -0.344861         0.750695         1.158783
 H         2.262893        -1.323616         3.736365
 H         0.906856        -2.112018         2.666033
 H         2.547029        -1.749884        -0.473397
