19
Iteration:  2721
 C         2.606130         1.327602        -0.176680
 C         1.744041         0.056928         0.043020
 C         0.696892        -0.353978        -0.897389
 C         0.409744        -1.239154         0.330505
 C         0.716555         0.107927         1.194801
 O         1.122700        -0.011793         2.537576
 C         1.771734        -1.402033         2.737214
 O         2.533386        -1.687880         1.682507
 C         1.840093        -1.461198         0.433905
 H         3.358081         1.735872         0.573292
 H         3.266316         1.281111        -1.007534
 H         2.056953         2.188496        -0.501722
 H        -0.166763         0.302137        -1.175930
 H         0.983905        -0.908652        -1.794833
 H        -0.496783        -1.896626         0.472478
 H        -0.080174         0.859696         1.153920
 H         2.381234        -1.419584         3.669853
 H         0.903035        -2.092036         2.789714
 H         2.312799        -2.275612        -0.187820
