19
Iteration:  4980charge 0 multiplicity 1
 C         2.750754         1.260374        -0.192882
 C         1.752523         0.086101         0.050740
 C         0.617681        -0.442889        -1.019087
 C         0.366400        -1.235927         0.345362
 C         0.682352         0.148857         1.135941
 O         1.056815        -0.014063         2.524563
 C         1.696696        -1.288305         2.757689
 O         2.609072        -1.696805         1.773933
 C         1.908581        -1.431421         0.455266
 H         3.580183         1.243829         0.566411
 H         3.228604         1.086041        -1.197848
 H         2.098237         2.164897        -0.171370
 H        -0.226073         0.149728        -1.276404
 H         1.008136        -1.139756        -1.835119
 H        -0.518311        -1.807838         0.607020
 H        -0.046075         0.979262         1.191134
 H         2.196396        -1.267340         3.700880
 H         0.837018        -1.946968         2.879512
 H         2.326450        -2.232630        -0.140406
