19
Iteration:  1675
 C         2.676051         1.194534        -0.157700
 C         1.726344         0.048181         0.113610
 C         0.642345        -0.400563        -0.914798
 C         0.225299        -1.131600         0.387593
 C         0.606122         0.097125         1.279346
 O         1.083210        -0.106224         2.571578
 C         1.817832        -1.280468         2.685638
 O         2.660133        -1.564611         1.580548
 C         1.910719        -1.456386         0.405452
 H         3.321051         1.636592         0.666245
 H         3.479163         0.832552        -0.864887
 H         2.140900         1.994689        -0.699639
 H        -0.120649         0.212302        -1.529231
 H         1.146671        -1.012945        -1.698258
 H        -0.438169        -1.964671         0.501563
 H        -0.125495         0.939520         1.166430
 H         2.453704        -1.259335         3.541952
 H         1.237927        -2.211767         2.746534
 H         2.189001        -2.263730        -0.354526
