19
Iteration:  1262charge 0 multiplicity 1
 C         2.642759         1.273924        -0.246149
 C         1.721917         0.108276         0.062805
 C         0.561847        -0.415722        -0.930536
 C         0.386886        -1.271557         0.297176
 C         0.536267         0.066090         1.273543
 O         1.150970         0.012332         2.588483
 C         1.810806        -1.286402         2.724440
 O         2.613034        -1.760142         1.656886
 C         1.953097        -1.355268         0.414369
 H         3.114804         1.631815         0.729301
 H         3.385943         0.858350        -0.945411
 H         2.224262         2.124234        -0.772795
 H        -0.147583         0.433209        -1.112174
 H         0.853646        -1.092376        -1.740110
 H        -0.242232        -2.171070         0.408359
 H        -0.172113         0.851120         1.384210
 H         2.308820        -1.180118         3.713878
 H         0.963120        -2.003435         2.986055
 H         2.561809        -1.904832        -0.230385
