19
Iteration:  1813charge 0 multiplicity 1
 C         2.840525         1.088851        -0.297200
 C         1.654594         0.196759         0.080090
 C         0.485792        -0.300482        -0.816876
 C         0.462380        -1.366783         0.314016
 C         0.578639         0.001272         1.287148
 O         1.011088        -0.060052         2.591127
 C         1.718110        -1.315063         2.700838
 O         2.634975        -1.569174         1.639206
 C         1.996266        -1.254416         0.363300
 H         3.507910         0.950283         0.587766
 H         3.388212         0.462857        -1.094604
 H         2.577622         2.134527        -0.634143
 H        -0.409980         0.353981        -0.738546
 H         0.717985        -0.622868        -1.826843
 H        -0.181185        -2.301482         0.505200
 H        -0.257927         0.745467         1.355018
 H         2.276539        -1.277407         3.692089
 H         1.001086        -2.104914         2.686567
 H         2.639907        -1.851225        -0.297932
