19
Iteration:  2153charge 0 multiplicity 1
 C         2.788365         1.146952        -0.268170
 C         1.764538         0.090546         0.094276
 C         0.599692        -0.314754        -0.825907
 C         0.346259        -1.192271         0.380906
 C         0.617418         0.062563         1.279183
 O         0.953579        -0.197759         2.567258
 C         1.770686        -1.329613         2.665923
 O         2.702640        -1.503116         1.612985
 C         1.860091        -1.397790         0.438958
 H         3.440504         1.650080         0.486279
 H         3.358796         1.039843        -1.214590
 H         2.288445         2.003957        -0.709182
 H        -0.171311         0.431934        -1.264133
 H         0.932896        -0.945969        -1.628196
 H        -0.387865        -2.043958         0.409557
 H        -0.095489         0.914449         1.361900
 H         2.349449        -1.165648         3.587336
 H         1.052732        -2.243646         2.577903
 H         2.202813        -2.199165        -0.172201
