19
Iteration:   635
 C         2.742025         1.167603        -0.101836
 C         1.666777         0.062426         0.048932
 C         0.594675        -0.387769        -0.981357
 C         0.302023        -1.236365         0.434554
 C         0.563997         0.016222         1.196214
 O         1.183491        -0.046942         2.455205
 C         1.850138        -1.229980         2.814671
 O         2.606271        -1.578283         1.598897
 C         1.846763        -1.424963         0.428652
 H         3.592856         1.184858         0.627204
 H         3.164324         1.094864        -1.116254
 H         2.237819         2.168198         0.045827
 H        -0.188729         0.317318        -1.228310
 H         0.838125        -1.054385        -1.888980
 H        -0.455346        -2.095627         0.428676
 H        -0.128176         0.876629         1.182644
 H         2.532264        -0.872283         3.556205
 H         1.203158        -1.964076         3.293248
 H         2.207530        -2.241186        -0.352966
