19
Iteration:  2102charge 0 multiplicity 1
 C         2.760705         1.258571        -0.089239
 C         1.661706         0.229987         0.079617
 C         0.486731        -0.438915        -0.913993
 C         0.450164        -1.329330         0.414199
 C         0.566115         0.062842         1.179497
 O         1.203101         0.015911         2.466624
 C         1.746880        -1.323062         2.740549
 O         2.534458        -1.759640         1.648818
 C         1.937772        -1.328233         0.333426
 H         3.493086         1.481503         0.728462
 H         3.515515         1.059979        -0.857623
 H         2.510562         2.340649        -0.309716
 H        -0.396337         0.168533        -1.005229
 H         0.758211        -0.815425        -1.918133
 H        -0.203802        -2.116020         0.737614
 H        -0.341660         0.728597         1.128885
 H         2.463397        -1.400753         3.624477
 H         1.036828        -2.097679         3.013909
 H         2.476233        -2.016432        -0.427766
