19
Iteration:   405charge 0 multiplicity 1
 C         2.695235         1.153963        -0.379617
 C         1.778035         0.141225         0.141737
 C         0.568918        -0.401275        -0.833994
 C         0.493466        -1.265612         0.351336
 C         0.634408         0.117796         1.257824
 O         1.046595        -0.058278         2.573608
 C         1.813591        -1.219185         2.737456
 O         2.443223        -1.736741         1.672925
 C         1.968417        -1.322536         0.413988
 H         3.694686         1.272546         0.160124
 H         2.894821         1.015551        -1.424784
 H         2.104942         2.119412        -0.428612
 H        -0.106561         0.425708        -0.874072
 H         0.779488        -0.788532        -1.886980
 H        -0.043083        -2.148033         0.289967
 H        -0.320715         0.657062         1.121782
 H         2.511265        -1.144247         3.595052
 H         1.181103        -2.098081         3.111298
 H         2.473293        -2.028371        -0.370464
