19
Iteration:  2130
 C         2.690661         1.144759        -0.249314
 C         1.678485         0.131553         0.082848
 C         0.612181        -0.287676        -0.890525
 C         0.362393        -1.260525         0.349195
 C         0.602724         0.032990         1.194641
 O         1.045939        -0.100768         2.617810
 C         1.800231        -1.331777         2.774447
 O         2.602855        -1.605001         1.622317
 C         1.986538        -1.373815         0.376624
 H         3.287370         1.422067         0.624296
 H         3.406026         0.816474        -1.031849
 H         2.452970         2.065849        -0.712825
 H        -0.114656         0.609875        -1.043154
 H         0.882998        -0.688943        -1.866161
 H        -0.529899        -1.938667         0.508763
 H        -0.186353         0.773330         1.265303
 H         2.501349        -1.186947         3.579778
 H         1.057867        -2.217025         2.934330
 H         2.496016        -2.015825        -0.258002
