19
Iteration:  2098charge 0 multiplicity 1
 C         2.752584         1.295077        -0.064459
 C         1.644677         0.219671         0.046462
 C         0.500010        -0.450750        -0.881271
 C         0.429882        -1.321352         0.408686
 C         0.578667         0.044072         1.172290
 O         1.223119         0.027510         2.459650
 C         1.733240        -1.309208         2.719226
 O         2.530279        -1.755873         1.618202
 C         1.975874        -1.358910         0.384814
 H         3.469618         1.404054         0.760450
 H         3.471036         0.989091        -0.848212
 H         2.437762         2.285475        -0.215234
 H        -0.299211         0.327682        -1.035588
 H         0.786823        -0.883666        -1.804371
 H        -0.288740        -2.082536         0.805408
 H        -0.307917         0.639111         1.076298
 H         2.430842        -1.364884         3.492671
 H         0.962790        -2.097417         2.957308
 H         2.339690        -1.969855        -0.373982
