19
Iteration:  3024
 C         2.762417         1.122378        -0.260062
 C         1.665611         0.153464         0.132972
 C         0.565012        -0.338612        -0.901976
 C         0.371855        -1.269011         0.333035
 C         0.662456         0.008171         1.173552
 O         1.088236        -0.078836         2.608296
 C         1.698202        -1.334637         2.707709
 O         2.586197        -1.526405         1.651911
 C         1.997759        -1.370572         0.428013
 H         3.369288         1.236389         0.642211
 H         3.470117         0.689016        -1.058527
 H         2.528736         2.094213        -0.644006
 H        -0.235296         0.465751        -1.051206
 H         0.875191        -0.670147        -1.838834
 H        -0.426667        -2.061382         0.490786
 H        -0.339261         0.610633         1.288152
 H         2.160068        -1.360312         3.718050
 H         0.799072        -2.044997         2.593984
 H         2.763444        -1.909825        -0.164876
