19
Iteration:  3836
 C         2.793499         1.030313        -0.151470
 C         1.710560         0.096071        -0.013413
 C         0.624956        -0.408982        -0.890811
 C         0.260655        -1.195846         0.345475
 C         0.561191         0.050205         1.260523
 O         1.012506        -0.068302         2.580915
 C         1.777384        -1.341220         2.690486
 O         2.642879        -1.460913         1.677264
 C         1.992134        -1.321185         0.388449
 H         3.337076         1.375910         0.687901
 H         3.496962         0.552933        -0.828032
 H         2.516722         1.987033        -0.673737
 H        -0.105867         0.238790        -1.271126
 H         0.877256        -1.047598        -1.817792
 H        -0.558283        -1.936675         0.538578
 H        -0.130514         0.835655         1.186692
 H         2.297619        -1.369138         3.671264
 H         1.072256        -2.172074         2.725709
 H         2.498761        -1.885557        -0.402122
