19
Iteration:  3670
 C         2.779333         0.979034        -0.238931
 C         1.615685         0.144016         0.067673
 C         0.623884        -0.331653        -0.869887
 C         0.398367        -1.210379         0.319621
 C         0.493504        -0.016380         1.266145
 O         1.001327        -0.056306         2.583710
 C         1.707466        -1.269665         2.794920
 O         2.709227        -1.529991         1.596516
 C         1.961497        -1.322285         0.402849
 H         3.412913         1.484036         0.542743
 H         3.557086         0.304086        -0.726159
 H         2.633864         1.931389        -0.845570
 H        -0.136475         0.470918        -1.062841
 H         1.032296        -0.666458        -1.847217
 H        -0.249644        -2.112527         0.468769
 H        -0.186358         0.783309         1.311894
 H         2.425899        -1.247480         3.644711
 H         1.119436        -2.236844         2.643688
 H         2.493178        -1.979735        -0.423619
