19
Iteration:  1193charge 0 multiplicity 1
 C         2.721849         1.198624        -0.138517
 C         1.675022         0.071399         0.039543
 C         0.556408        -0.505749        -0.927470
 C         0.373468        -1.171924         0.467104
 C         0.666492         0.107650         1.190508
 O         1.016091        -0.117376         2.539746
 C         1.824121        -1.273653         2.695286
 O         2.646153        -1.518946         1.605003
 C         1.925923        -1.408584         0.379371
 H         3.540447         0.951671         0.537602
 H         3.044128         1.304791        -1.223705
 H         2.409674         2.194847         0.224751
 H        -0.231891         0.246125        -1.238345
 H         0.808786        -1.257794        -1.684182
 H        -0.380964        -2.041395         0.697082
 H        -0.055149         0.955833         1.153906
 H         2.465653        -1.103017         3.602153
 H         1.157052        -2.118441         3.000918
 H         2.162442        -2.144993        -0.364942
