19
Iteration:  4282
 C         2.583856         1.230007        -0.133322
 C         1.768503         0.055608         0.033296
 C         0.736567        -0.427786        -0.965835
 C         0.398527        -1.185261         0.399972
 C         0.672061         0.068813         1.103158
 O         1.217103         0.025317         2.438793
 C         1.577297        -1.198660         2.811258
 O         2.456459        -1.751131         1.708631
 C         1.994384        -1.455086         0.459631
 H         3.124038         1.423930         0.798138
 H         3.281904         1.122195        -0.915792
 H         1.899908         2.107224        -0.207576
 H         0.007523         0.216384        -1.288732
 H         1.267656        -1.066121        -1.741962
 H        -0.250954        -2.062082         0.500183
 H        -0.095120         0.917820         1.076112
 H         2.308476        -1.195256         3.649826
 H         0.827849        -1.901599         3.162684
 H         2.513291        -1.986923        -0.397899
