19
Iteration:  2021
 C         2.780454         1.203986        -0.249571
 C         1.679795         0.217761         0.112801
 C         0.515507        -0.358853        -0.875144
 C         0.445257        -1.265671         0.378086
 C         0.584917         0.087311         1.179255
 O         1.014678        -0.102848         2.605106
 C         1.843543        -1.282397         2.710081
 O         2.541502        -1.747098         1.598130
 C         2.027754        -1.309948         0.459557
 H         3.455118         1.116278         0.618208
 H         3.276806         0.626386        -1.066529
 H         2.517927         2.159466        -0.559241
 H        -0.387379         0.256723        -0.944413
 H         0.653095        -0.877431        -1.768179
 H        -0.312281        -2.104636         0.538320
 H        -0.267789         0.714240         0.975140
 H         2.525148        -1.138773         3.504900
 H         1.060869        -2.027766         2.790802
 H         2.486181        -1.616004        -0.422266
