19
Iteration:  1368charge 0 multiplicity 1
 C         2.677292         1.225100        -0.107223
 C         1.653848         0.099727         0.016247
 C         0.517647        -0.401729        -0.957701
 C         0.391912        -1.295074         0.449810
 C         0.619710         0.072922         1.165470
 O         1.069839         0.018874         2.601286
 C         1.783435        -1.241143         2.685897
 O         2.713675        -1.665246         1.622535
 C         1.972022        -1.453499         0.408161
 H         3.506605         0.997860         0.582378
 H         3.177086         1.180098        -1.125689
 H         2.197498         2.112660         0.158615
 H        -0.100401         0.432515        -1.415345
 H         0.743152        -1.014973        -1.817001
 H        -0.456117        -2.034107         0.569322
 H        -0.188495         0.885768         1.154512
 H         2.363524        -1.028605         3.632407
 H         0.973418        -2.009543         2.606854
 H         2.297274        -2.237984        -0.357783
