19
Iteration:  3651
 C         2.912445         1.119588        -0.179762
 C         1.671407         0.130856         0.047667
 C         0.550387        -0.393409        -0.905496
 C         0.371560        -1.265623         0.415190
 C         0.619305         0.069797         1.208490
 O         0.978247        -0.118912         2.584304
 C         1.788522        -1.274885         2.674847
 O         2.603799        -1.515035         1.643149
 C         1.897240        -1.377002         0.383679
 H         3.275954         1.530433         0.758194
 H         3.644589         0.682269        -0.857572
 H         2.385008         2.042582        -0.697594
 H        -0.232083         0.239630        -1.195148
 H         0.803725        -0.981236        -1.842429
 H        -0.463382        -2.034375         0.466478
 H        -0.219207         0.808236         1.203352
 H         2.514205        -1.177141         3.509661
 H         1.104998        -2.120380         2.972937
 H         2.574068        -1.939512        -0.196049
