19
Iteration:   101
 C         2.690170         1.230191        -0.326776
 C         1.695667         0.127491        -0.000447
 C         0.559390        -0.348697        -0.888392
 C         0.455335        -1.270076         0.370117
 C         0.692310         0.084963         1.143277
 O         1.090747        -0.089964         2.578101
 C         1.757618        -1.286132         2.845375
 O         2.562875        -1.656461         1.676141
 C         1.932103        -1.420071         0.444469
 H         3.392872         1.336127         0.530027
 H         3.243083         0.851244        -1.143451
 H         2.247341         2.210932        -0.628484
 H        -0.299534         0.287373        -1.009308
 H         0.935795        -0.744751        -1.875339
 H        -0.464405        -1.904398         0.589139
 H        -0.226862         0.657524         1.305769
 H         2.425124        -1.102423         3.749205
 H         0.973877        -1.960230         3.125881
 H         2.361341        -2.086532        -0.267727
