19
Iteration:  2583
 C         2.691449         1.307683        -0.070184
 C         1.610412         0.111940         0.050781
 C         0.613863        -0.372530        -0.915993
 C         0.357079        -1.334140         0.260046
 C         0.619063        -0.075062         1.198912
 O         1.291132         0.041164         2.440841
 C         1.726580        -1.214867         2.850853
 O         2.507399        -1.732719         1.671391
 C         1.920857        -1.372948         0.378242
 H         3.422609         0.772088         0.605593
 H         3.106875         1.195763        -1.078829
 H         2.223123         2.255096         0.271669
 H        -0.210348         0.263053        -1.217950
 H         1.221528        -0.660455        -1.894831
 H        -0.368163        -2.093596         0.324881
 H        -0.143641         0.785178         1.276559
 H         2.465695        -1.160948         3.735109
 H         0.856917        -1.941012         2.927209
 H         2.612913        -1.935855        -0.286072
