19
Iteration:   983
 C         2.741825         1.183633        -0.143876
 C         1.626820         0.158297         0.055123
 C         0.496686        -0.446447        -0.838049
 C         0.426361        -1.311144         0.469772
 C         0.659918         0.067549         1.173832
 O         1.123548        -0.021824         2.469504
 C         1.717373        -1.296518         2.690855
 O         2.595611        -1.575280         1.613153
 C         1.963825        -1.390220         0.391447
 H         3.533636         0.998731         0.600050
 H         3.177489         1.041485        -1.128937
 H         2.647065         2.307263        -0.103836
 H        -0.382102         0.184473        -0.924996
 H         0.781585        -1.030208        -1.770112
 H        -0.342984        -2.119502         0.713152
 H         0.019592         0.983403         1.193002
 H         2.321490        -1.349147         3.558368
 H         1.007784        -2.103682         2.746447
 H         2.569649        -1.920763        -0.303808
