19
Iteration:  3960charge 0 multiplicity 1
 C         2.752152         1.179329        -0.114261
 C         1.725851         0.081821         0.034724
 C         0.609416        -0.405767        -0.955957
 C         0.342272        -1.342593         0.300678
 C         0.577008        -0.007906         1.223850
 O         1.136628         0.023775         2.513268
 C         1.695561        -1.169647         2.779197
 O         2.595747        -1.637045         1.699652
 C         1.962372        -1.415871         0.415524
 H         3.621851         1.223709         0.581784
 H         3.170153         1.379039        -1.099339
 H         2.183589         2.111285        -0.026711
 H        -0.197949         0.426437        -1.040510
 H         0.982311        -0.658292        -1.902786
 H        -0.166567        -2.284323         0.287162
 H        -0.152504         0.755627         1.007536
 H         2.124377        -1.297433         3.754108
 H         0.794737        -1.909583         2.721186
 H         2.384186        -1.952233        -0.396309
