19
Iteration:  4166
 C         2.839583         1.055698        -0.161243
 C         1.656230         0.165905         0.008466
 C         0.574762        -0.460407        -0.994634
 C         0.408846        -1.226870         0.362075
 C         0.653401         0.200171         1.182087
 O         0.883563        -0.112594         2.532219
 C         1.771525        -1.254491         2.754342
 O         2.637678        -1.539528         1.700541
 C         1.946903        -1.404509         0.462407
 H         3.563155         0.899222         0.699018
 H         3.383989         0.754350        -1.062796
 H         2.703886         2.151032        -0.219534
 H        -0.264013         0.200513        -1.222477
 H         1.052896        -0.923081        -1.818184
 H        -0.268561        -2.034085         0.481146
 H        -0.169100         0.862117         1.198680
 H         2.279555        -1.197039         3.644840
 H         1.090662        -2.099506         2.878904
 H         2.499377        -2.063057        -0.171244
