19
Iteration:  1497
 C         2.738208         1.271402        -0.202444
 C         1.733533         0.161617         0.033067
 C         0.569626        -0.420957        -0.806615
 C         0.393765        -1.245819         0.428617
 C         0.611079         0.079523         1.239319
 O         1.058365        -0.129727         2.500785
 C         1.778262        -1.274780         2.712502
 O         2.588177        -1.614289         1.575609
 C         1.931607        -1.442275         0.434209
 H         3.016948         1.648033         0.789428
 H         3.581824         0.699651        -0.760944
 H         2.393376         2.098264        -0.904330
 H        -0.239166         0.285316        -1.120025
 H         0.814080        -1.099012        -1.677534
 H        -0.408519        -1.897937         0.677486
 H        -0.255946         0.808600         1.214334
 H         2.553277        -1.124547         3.501150
 H         1.137121        -2.102555         2.971126
 H         2.423946        -1.940782        -0.483261
