19
Iteration:  3702
 C         2.823789         1.208198        -0.231748
 C         1.702539         0.136758         0.023685
 C         0.529673        -0.434158        -0.868032
 C         0.428004        -1.210800         0.415893
 C         0.620778         0.014344         1.197742
 O         1.034647        -0.040843         2.547133
 C         1.670948        -1.353247         2.768077
 O         2.613221        -1.598218         1.643284
 C         1.969357        -1.342286         0.374631
 H         3.332436         1.454481         0.742868
 H         3.428939         0.792974        -1.074451
 H         2.330531         2.020761        -0.753132
 H        -0.226761         0.414193        -1.018750
 H         0.855945        -0.901294        -1.817775
 H        -0.180174        -2.089924         0.699678
 H        -0.053864         0.837888         1.114514
 H         2.231325        -1.353478         3.735111
 H         0.841546        -2.083368         2.978375
 H         2.566944        -2.073589        -0.321343
