19
Iteration:  4305
 C         2.867582         1.276171        -0.155854
 C         1.735749         0.164378         0.022850
 C         0.527246        -0.463928        -0.916792
 C         0.417801        -1.321041         0.321382
 C         0.620666         0.073163         1.101003
 O         1.044457         0.080546         2.481536
 C         1.647185        -1.242626         2.691961
 O         2.567108        -1.742952         1.789057
 C         1.982999        -1.461504         0.503651
 H         3.445153         1.298280         0.790546
 H         3.520126         1.091050        -0.950660
 H         2.413000         2.280299        -0.274413
 H        -0.271034         0.183990        -1.012245
 H         0.755491        -1.016400        -1.879609
 H        -0.230280        -2.178485         0.489674
 H        -0.242197         0.808806         1.003304
 H         2.206260        -1.220254         3.604110
 H         0.850723        -1.944704         2.861737
 H         2.610738        -1.982534        -0.284841
