19
Iteration:  4422
 C         2.665506         1.223596        -0.156539
 C         1.747321         0.102147         0.039320
 C         0.707072        -0.532986        -0.950806
 C         0.373833        -1.244741         0.342552
 C         0.526278         0.118488         1.122241
 O         1.245543         0.058388         2.448077
 C         1.574524        -1.257935         2.721553
 O         2.518408        -1.753247         1.778387
 C         2.059053        -1.359687         0.515862
 H         3.139647         1.416046         0.840794
 H         3.400092         1.235803        -1.030593
 H         1.916914         2.043776        -0.325116
 H        -0.071914         0.251032        -1.199982
 H         1.067067        -1.078443        -1.899488
 H        -0.304250        -2.057655         0.470210
 H        -0.205576         0.917116         0.983106
 H         2.141827        -1.302061         3.636100
 H         0.754716        -1.918582         3.026440
 H         2.536054        -1.961051        -0.239643
