19
Iteration:  2080
 C         2.596583         1.221595        -0.027032
 C         1.707770         0.089283         0.065146
 C         0.582143        -0.408082        -0.891496
 C         0.347432        -1.252459         0.428598
 C         0.646300         0.088602         1.205272
 O         1.265301         0.029338         2.446412
 C         1.734059        -1.238991         2.658393
 O         2.608244        -1.746500         1.648353
 C         1.895064        -1.423446         0.320378
 H         3.185522         1.268873         0.947288
 H         3.388786         1.367205        -0.768366
 H         2.094448         2.229991        -0.002314
 H        -0.302566         0.131559        -1.164590
 H         0.889563        -1.035360        -1.755175
 H        -0.422839        -1.985445         0.393188
 H        -0.091576         0.931388         1.266176
 H         2.189012        -1.363676         3.676343
 H         0.898391        -1.952113         2.673094
 H         2.524952        -2.021515        -0.403719
