19
Iteration:  1116charge 0 multiplicity 1
 C         2.668073         1.268768        -0.176139
 C         1.716070         0.094168         0.030073
 C         0.569346        -0.414165        -0.892251
 C         0.346766        -1.226426         0.476943
 C         0.657192         0.098296         1.236052
 O         1.136470        -0.050158         2.534534
 C         1.768024        -1.279340         2.642085
 O         2.660818        -1.674493         1.680098
 C         1.939255        -1.417624         0.358051
 H         3.209076         1.644017         0.659537
 H         3.391583         0.941020        -1.003290
 H         1.987163         2.020531        -0.648499
 H        -0.395021        -0.004314        -1.271730
 H         1.003498        -1.161432        -1.600915
 H        -0.642457        -1.830781         0.646519
 H        -0.153567         0.857799         1.296733
 H         2.227847        -1.227562         3.633578
 H         0.836467        -1.990714         2.622583
 H         2.248092        -2.120938        -0.369016
