19
Iteration:  2571
 C         2.682741         1.274613        -0.091274
 C         1.682926         0.188646         0.094364
 C         0.532131        -0.375416        -0.909518
 C         0.377020        -1.370401         0.254293
 C         0.582009        -0.003906         1.165682
 O         1.321822         0.009240         2.422397
 C         1.715681        -1.272092         2.722877
 O         2.462804        -1.698230         1.721411
 C         2.014331        -1.411526         0.460755
 H         3.612925         1.220263         0.631610
 H         3.110890         1.366574        -1.074348
 H         2.547924         2.360383         0.120593
 H        -0.216474         0.380321        -1.029153
 H         0.798533        -0.968177        -1.891659
 H        -0.369068        -2.127239         0.356649
 H        -0.402738         0.560326         1.279143
 H         2.332308        -1.230081         3.684759
 H         0.819153        -1.926747         3.021950
 H         2.608333        -1.956816        -0.276347
