19
Iteration:  3459charge 0 multiplicity 1
 C         2.675922         1.189669        -0.115429
 C         1.670132         0.067624         0.024904
 C         0.601512        -0.343051        -0.889200
 C         0.364931        -1.213729         0.364919
 C         0.672565         0.100410         1.157685
 O         1.126772        -0.054065         2.548369
 C         1.739680        -1.278892         2.768355
 O         2.625837        -1.600350         1.612173
 C         1.949580        -1.488057         0.418313
 H         3.215607         1.312701         0.845045
 H         3.428313         0.643981        -0.766410
 H         2.126769         2.064152        -0.384587
 H        -0.240821         0.291887        -1.227593
 H         0.873708        -0.947705        -1.715967
 H        -0.588025        -1.763608         0.327046
 H        -0.122575         0.813814         1.232461
 H         2.358945        -1.187232         3.650549
 H         1.022698        -2.049305         2.670975
 H         2.232915        -2.097044        -0.459669
