19
Iteration:   297charge 0 multiplicity 1
 C         2.745038         1.085878        -0.105920
 C         1.641794         0.078886         0.089902
 C         0.537603        -0.369363        -0.945407
 C         0.357791        -1.213149         0.345134
 C         0.574090        -0.044327         1.226258
 O         1.133750        -0.000901         2.499473
 C         1.897482        -1.134181         2.763267
 O         2.524964        -1.690839         1.623398
 C         1.946520        -1.354863         0.343740
 H         3.257429         1.239454         0.918587
 H         3.498221         0.696354        -0.769595
 H         2.328327         2.117944        -0.389839
 H        -0.221692         0.335830        -1.216938
 H         0.939852        -1.155016        -1.686143
 H        -0.492354        -1.964879         0.472274
 H        -0.269899         0.737863         1.098730
 H         2.609701        -0.627322         3.469678
 H         1.245818        -1.935951         3.401226
 H         2.592785        -1.947775        -0.378342
