19
Iteration:  3175
 C         2.821954         1.149669        -0.217929
 C         1.702411         0.097195         0.076721
 C         0.627542        -0.309252        -0.884486
 C         0.298016        -1.187109         0.412038
 C         0.640312         0.067277         1.165010
 O         0.977039        -0.144495         2.589143
 C         1.720915        -1.341260         2.774674
 O         2.649767        -1.477369         1.544363
 C         1.943003        -1.448426         0.383297
 H         3.444236         1.180120         0.686472
 H         3.448367         0.630261        -1.067852
 H         2.447051         2.202619        -0.473814
 H        -0.211276         0.502353        -1.045366
 H         0.915125        -1.022066        -1.695715
 H        -0.470858        -1.922842         0.747523
 H        -0.103711         0.848983         1.353779
 H         2.404591        -1.234565         3.653577
 H         1.069244        -2.336522         2.982511
 H         2.410415        -2.213302        -0.299126
