19
Iteration:  1677
 C         2.658651         1.170281        -0.157240
 C         1.714671         0.054954         0.128794
 C         0.656259        -0.414124        -0.921672
 C         0.239667        -1.113663         0.396784
 C         0.619070         0.087513         1.265688
 O         1.092160        -0.095863         2.565355
 C         1.815856        -1.286108         2.674742
 O         2.652996        -1.565939         1.578670
 C         1.909955        -1.458945         0.409694
 H         3.259388         1.631391         0.674413
 H         3.475685         0.857205        -0.808560
 H         2.120398         2.066917        -0.673166
 H        -0.113551         0.211151        -1.400101
 H         1.143316        -0.968295        -1.718948
 H        -0.479963        -2.013440         0.461964
 H        -0.096679         0.925044         1.201808
 H         2.437422        -1.229334         3.533620
 H         1.199915        -2.146800         2.718659
 H         2.197156        -2.205642        -0.356929
