19
Iteration:  1275charge 0 multiplicity 1
 C         2.676146         1.293663        -0.269993
 C         1.680256         0.164160        -0.060521
 C         0.556714        -0.423694        -0.922898
 C         0.398626        -1.201959         0.406281
 C         0.677662         0.116083         1.187135
 O         1.102574        -0.116746         2.559293
 C         1.836316        -1.356950         2.841147
 O         2.554263        -1.676216         1.685823
 C         1.933575        -1.391338         0.453595
 H         2.961792         1.709071         0.714136
 H         3.607252         1.090615        -0.732925
 H         2.103655         2.097945        -0.808424
 H        -0.296095         0.136702        -1.264359
 H         0.917778        -1.005690        -1.809400
 H        -0.289021        -1.991843         0.483306
 H        -0.205857         0.741837         1.167539
 H         2.623544        -1.203350         3.551192
 H         1.102639        -2.224164         3.027722
 H         2.289534        -2.048226        -0.369743
