19
Iteration:  1511
 C         2.750560         1.244089        -0.224519
 C         1.576532         0.215903         0.046388
 C         0.531881        -0.362843        -0.933348
 C         0.407881        -1.315030         0.373856
 C         0.578855        -0.005053         1.169868
 O         1.136967        -0.019804         2.583799
 C         1.839273        -1.277964         2.763846
 O         2.586865        -1.737097         1.669310
 C         1.937097        -1.340451         0.376555
 H         3.233290         1.584088         0.749379
 H         3.671839         0.759068        -0.666083
 H         2.506635         2.122510        -0.758851
 H        -0.404243         0.219199        -1.034734
 H         0.954725        -0.717565        -1.812954
 H        -0.258382        -2.220895         0.421969
 H        -0.236014         0.747931         1.242860
 H         2.457901        -1.114043         3.685767
 H         1.042041        -2.063665         3.045012
 H         2.419050        -2.093848        -0.300196
