19
Iteration:  3732
 C         2.627494         1.304893        -0.151465
 C         1.750407         0.099266         0.057183
 C         0.624532        -0.471316        -0.945257
 C         0.358829        -1.213289         0.403350
 C         0.702139         0.101475         1.164418
 O         1.159673         0.045246         2.504887
 C         1.686321        -1.386034         2.731945
 O         2.584349        -1.698897         1.699504
 C         1.950122        -1.463229         0.434875
 H         3.370600         1.394125         0.688327
 H         3.088459         1.242738        -1.154650
 H         1.876432         2.045895        -0.157347
 H        -0.123479         0.369562        -1.225081
 H         1.020282        -1.002136        -1.786854
 H        -0.365627        -2.013948         0.569236
 H         0.030728         1.011242         0.952894
 H         2.221895        -1.282782         3.691637
 H         0.733271        -1.843078         2.739333
 H         2.287162        -2.110816        -0.430564
