19
Iteration:  4971charge 0 multiplicity 1
 C         2.739956         1.274456        -0.212207
 C         1.787217         0.119851         0.051604
 C         0.630408        -0.426813        -0.922217
 C         0.353752        -1.197995         0.432275
 C         0.607846         0.097975         1.065914
 O         1.103966         0.010570         2.428579
 C         1.620305        -1.286377         2.878967
 O         2.583887        -1.772793         1.722812
 C         2.013358        -1.454964         0.456760
 H         3.495494         1.333397         0.568322
 H         3.110227         1.289901        -1.262485
 H         2.106679         2.165720        -0.031541
 H        -0.114557         0.282638        -1.297201
 H         0.968745        -1.062851        -1.920939
 H        -0.452087        -1.866913         0.664998
 H        -0.225789         0.837369         0.968423
 H         2.302703        -1.217337         3.732425
 H         0.833742        -1.950857         3.032542
 H         2.374632        -2.116308        -0.394183
