19
Iteration:  2709
 C         2.683332         1.288616        -0.226698
 C         1.773371         0.152208         0.049508
 C         0.561843        -0.407241        -1.021493
 C         0.367063        -1.160511         0.368076
 C         0.711386         0.095097         1.217340
 O         1.122572        -0.126565         2.609481
 C         1.667200        -1.367465         2.761029
 O         2.578155        -1.627946         1.689422
 C         1.980796        -1.446590         0.403007
 H         3.106882         1.580273         0.734883
 H         3.399349         0.935616        -0.943409
 H         2.013799         2.032156        -0.571026
 H        -0.260359         0.359412        -1.219010
 H         0.897399        -0.950865        -1.894362
 H        -0.389907        -1.961330         0.648010
 H         0.060003         0.938554         1.211748
 H         2.260169        -1.348043         3.675967
 H         0.874840        -2.166974         2.842381
 H         2.326814        -2.179888        -0.379213
