19
Iteration:  3592
 C         2.627677         1.244965        -0.082990
 C         1.660322         0.185736         0.112591
 C         0.633769        -0.396075        -0.898323
 C         0.424953        -1.348213         0.349219
 C         0.633058         0.003906         1.131063
 O         1.337158         0.083165         2.487936
 C         1.623304        -1.242713         2.761120
 O         2.510238        -1.754274         1.693607
 C         1.882652        -1.431435         0.361639
 H         3.641365         1.350543         0.449391
 H         3.067246         1.265008        -1.201942
 H         2.192302         2.234965        -0.103702
 H        -0.131678         0.392687        -1.221252
 H         1.115304        -1.015958        -1.567266
 H        -0.167556        -2.223336         0.444570
 H        -0.188259         0.643936         1.037642
 H         2.398651        -1.219285         3.564798
 H         0.676713        -1.916311         2.918095
 H         2.446095        -1.953466        -0.538674
