19
Iteration:  1787charge 0 multiplicity 1
 C         2.764012         1.218126        -0.253006
 C         1.721026         0.124210        -0.000706
 C         0.578416        -0.405591        -0.903988
 C         0.377585        -1.157459         0.405979
 C         0.669727         0.115114         1.248770
 O         0.989379        -0.176925         2.570504
 C         1.791018        -1.342671         2.753438
 O         2.630406        -1.591533         1.626394
 C         1.908719        -1.360707         0.405430
 H         3.476658         1.190515         0.544070
 H         3.258001         1.070176        -1.197698
 H         2.150138         2.179638        -0.364996
 H        -0.221091         0.241966        -1.187775
 H         0.783924        -1.073255        -1.754555
 H        -0.407151        -1.908739         0.640945
 H        -0.098160         0.856792         1.400203
 H         2.376474        -1.163178         3.678076
 H         1.122253        -2.272664         2.967902
 H         2.352146        -2.100745        -0.254014
