19
Iteration:   355
 C         2.671580         1.190867        -0.236630
 C         1.740686         0.041337         0.072581
 C         0.601443        -0.422091        -0.872342
 C         0.255358        -1.212360         0.415066
 C         0.673556         0.078048         1.203750
 O         1.169720        -0.012663         2.547479
 C         1.690947        -1.320707         2.723464
 O         2.594016        -1.604566         1.636523
 C         1.992099        -1.411181         0.441262
 H         3.249476         1.544186         0.601600
 H         3.353257         0.927610        -1.079470
 H         2.077130         2.036050        -0.602262
 H        -0.129468         0.368928        -1.198408
 H         0.915350        -0.993716        -1.732845
 H        -0.698013        -1.881683         0.545282
 H         0.086753         1.000927         1.058381
 H         2.362979        -1.197927         3.590375
 H         1.064654        -2.223910         2.701185
 H         2.428534        -2.015899        -0.294102
