19
Iteration:  3463
 C         2.700266         1.142158        -0.105522
 C         1.686178         0.114223         0.044333
 C         0.567088        -0.356896        -0.860053
 C         0.365499        -1.231760         0.329875
 C         0.671985         0.112598         1.165516
 O         1.104008        -0.064398         2.586721
 C         1.748156        -1.243754         2.739777
 O         2.620509        -1.589864         1.578602
 C         1.958373        -1.493930         0.416541
 H         3.309151         1.421969         0.822175
 H         3.436182         0.713877        -0.790075
 H         2.278862         2.101675        -0.511729
 H        -0.269697         0.237197        -1.286982
 H         0.857641        -0.965800        -1.741444
 H        -0.529972        -1.826784         0.481717
 H        -0.208062         0.755478         1.141282
 H         2.327953        -1.256608         3.686379
 H         0.940949        -2.080285         2.664690
 H         2.333735        -2.124733        -0.380993
