19
Iteration:  1016
 C         2.735692         1.228401        -0.181427
 C         1.645228         0.132487        -0.003524
 C         0.632653        -0.393069        -0.933426
 C         0.278074        -1.253308         0.387032
 C         0.592314         0.065950         1.195093
 O         1.052508        -0.049888         2.607123
 C         1.913689        -1.281782         2.727949
 O         2.689719        -1.557165         1.641609
 C         1.823565        -1.546880         0.439718
 H         3.495607         1.119033         0.585450
 H         3.332128         1.040280        -1.110617
 H         2.245288         2.280495        -0.115072
 H        -0.198339         0.285757        -1.150935
 H         0.811614        -0.924909        -1.929134
 H        -0.579507        -2.046363         0.323027
 H         0.119001         1.080630         1.187717
 H         2.486611        -1.140643         3.610324
 H         1.166922        -2.132885         2.795948
 H         2.225824        -2.252329        -0.255351
