19
Iteration:  2414
 C         2.672798         1.340644        -0.005537
 C         1.703142         0.089603         0.075119
 C         0.621257        -0.469516        -0.883895
 C         0.413745        -1.211461         0.400532
 C         0.607383         0.045151         1.150668
 O         1.234624         0.041811         2.479517
 C         1.729325        -1.200702         2.679222
 O         2.545560        -1.763139         1.573076
 C         1.909126        -1.477862         0.414093
 H         3.319737         1.186647         0.892659
 H         3.145001         1.376173        -1.053928
 H         1.970766         2.165792         0.093694
 H        -0.229344         0.189307        -1.229320
 H         1.038335        -1.031735        -1.669585
 H        -0.439419        -1.963839         0.636907
 H        -0.270702         0.662696         1.007890
 H         2.379988        -1.308375         3.578214
 H         0.945315        -1.998637         2.845953
 H         2.219234        -2.109973        -0.416525
