19
Iteration:  2045
 C         2.698915         1.282398        -0.138899
 C         1.708745         0.085225         0.003478
 C         0.602120        -0.360969        -0.880704
 C         0.328511        -1.222953         0.371431
 C         0.650239         0.034787         1.236415
 O         1.166834        -0.086295         2.515770
 C         1.784888        -1.262332         2.763367
 O         2.573615        -1.665951         1.648974
 C         1.916283        -1.451218         0.344197
 H         3.263088         1.284639         0.822300
 H         3.386534         1.228293        -1.008475
 H         2.029070         2.130876        -0.155446
 H        -0.214316         0.290122        -1.100322
 H         0.860085        -0.932395        -1.711561
 H        -0.512503        -1.879467         0.547716
 H        -0.088278         0.810383         1.114130
 H         2.428517        -1.124657         3.576769
 H         0.955904        -1.972241         2.891206
 H         2.209192        -2.046595        -0.510532
