19
Iteration:  1685
 C         2.622268         1.137054        -0.155338
 C         1.667655         0.089412         0.125985
 C         0.678505        -0.433565        -0.907599
 C         0.317341        -1.175838         0.404117
 C         0.649802         0.074713         1.194999
 O         1.126626        -0.050274         2.543620
 C         1.808953        -1.315909         2.658297
 O         2.642960        -1.593223         1.586538
 C         1.880648        -1.411444         0.428668
 H         2.945532         1.488260         0.879031
 H         3.484663         0.859011        -0.814738
 H         2.132399         2.011745        -0.518683
 H        -0.100701         0.410539        -1.005955
 H         1.058198        -0.981048        -1.804403
 H        -0.531205        -1.782983         0.459771
 H        -0.033336         0.950797         1.341741
 H         2.395208        -1.183585         3.557097
 H         0.922558        -2.034117         2.755534
 H         2.350420        -2.001491        -0.428574
