19
Iteration:  2197charge 0 multiplicity 1
 C         2.757563         1.205111        -0.197905
 C         1.653120         0.188520         0.103085
 C         0.569337        -0.429209        -0.816088
 C         0.437804        -1.317222         0.331856
 C         0.551888         0.051315         1.241675
 O         1.175195        -0.036575         2.522167
 C         1.657564        -1.293987         2.697871
 O         2.585018        -1.617356         1.649128
 C         1.989729        -1.372707         0.402483
 H         3.482336         1.097457         0.679312
 H         3.355869         0.974060        -1.176172
 H         2.665074         2.322864        -0.232593
 H        -0.397236         0.253905        -0.931216
 H         0.763498        -0.735652        -1.840077
 H        -0.278479        -2.199607         0.308613
 H        -0.327826         0.734160         1.174811
 H         2.363292        -1.362382         3.563441
 H         0.878753        -2.050223         2.498778
 H         2.364537        -1.934974        -0.442042
