19
Iteration:  4130charge 0 multiplicity 1
 C         2.715322         1.119931        -0.139856
 C         1.734510         0.078361         0.090004
 C         0.647414        -0.383252        -0.916661
 C         0.415812        -1.277862         0.279413
 C         0.624813         0.049216         1.177104
 O         1.062535         0.055505         2.496753
 C         1.709610        -1.211062         2.728962
 O         2.515004        -1.692075         1.728574
 C         1.987195        -1.421419         0.454406
 H         3.545212         1.181016         0.574474
 H         3.078217         0.974804        -1.151593
 H         2.118799         2.078334        -0.171117
 H        -0.100267         0.335982        -1.052394
 H         0.937447        -0.671384        -1.978496
 H        -0.165648        -2.249023         0.355941
 H        -0.146710         0.875897         1.071718
 H         2.335635        -0.909774         3.598261
 H         0.920296        -1.942491         2.906072
 H         2.652704        -1.920967        -0.339954
