19
Iteration:  2708charge 0 multiplicity 1
 C         2.689132         1.284939        -0.230603
 C         1.769140         0.149800         0.048192
 C         0.553390        -0.410513        -1.016876
 C         0.368595        -1.155203         0.373520
 C         0.706561         0.092189         1.209018
 O         1.120651        -0.129362         2.612033
 C         1.658499        -1.363955         2.764840
 O         2.584759        -1.628383         1.685737
 C         1.984681        -1.438260         0.400614
 H         3.090831         1.562094         0.703161
 H         3.453952         0.926437        -0.936319
 H         2.021518         2.037828        -0.559597
 H        -0.260638         0.388722        -1.218391
 H         0.909785        -0.960142        -1.870423
 H        -0.380798        -1.962479         0.634119
 H         0.075659         0.928975         1.270264
 H         2.245843        -1.337528         3.664496
 H         0.869280        -2.198209         2.837163
 H         2.367867        -2.153623        -0.375955
