19
Iteration:  4758
 C         2.670806         1.296001        -0.107459
 C         1.692296         0.106413         0.046084
 C         0.657911        -0.521697        -0.861010
 C         0.492781        -1.313259         0.344594
 C         0.662302         0.084497         1.143598
 O         1.136735         0.129892         2.438469
 C         1.634357        -1.250153         2.783296
 O         2.479520        -1.727413         1.681441
 C         1.977280        -1.466863         0.422401
 H         3.588540         1.066732         0.456342
 H         2.978888         1.065415        -1.140547
 H         2.447073         2.368436        -0.057994
 H        -0.100710         0.319786        -1.168441
 H         1.092573        -1.112563        -1.663250
 H        -0.322561        -2.085927         0.503689
 H        -0.149402         0.802790         1.130927
 H         2.330403        -1.212332         3.677161
 H         0.649019        -1.875648         2.778099
 H         2.606686        -1.978046        -0.199133
