19
Iteration:  3389
 C         2.703026         1.259887        -0.182968
 C         1.729337         0.136150         0.116141
 C         0.544001        -0.415501        -0.937547
 C         0.376149        -1.237545         0.317237
 C         0.601796         0.022350         1.194545
 O         1.254510        -0.017103         2.514331
 C         1.660531        -1.315477         2.787648
 O         2.549368        -1.748101         1.671239
 C         1.978596        -1.345345         0.454352
 H         3.617559         1.397521         0.357851
 H         3.073185         1.070448        -1.158999
 H         2.182514         2.248447        -0.085253
 H        -0.277822         0.267620        -1.093327
 H         0.741414        -0.877464        -1.957091
 H        -0.460187        -2.011533         0.301814
 H        -0.145036         0.879694         1.034338
 H         2.354549        -1.197148         3.626433
 H         0.818107        -1.934102         2.868265
 H         2.553286        -1.843865        -0.356096
