19
Iteration:  3691charge 0 multiplicity 1
 C         2.798530         1.097387        -0.268054
 C         1.705071         0.155072         0.145925
 C         0.512737        -0.339093        -0.866337
 C         0.395912        -1.319513         0.325691
 C         0.587871         0.085173         1.205958
 O         1.029689        -0.053538         2.512067
 C         1.756851        -1.357112         2.722005
 O         2.608067        -1.565727         1.718643
 C         1.966594        -1.308456         0.417052
 H         3.500138         1.560124         0.491603
 H         3.599572         0.518646        -0.801906
 H         2.538625         2.032944        -0.744444
 H        -0.395440         0.319872        -1.154514
 H         0.906768        -0.852451        -1.766285
 H        -0.304210        -2.142812         0.583563
 H        -0.282886         0.710010         1.190873
 H         2.376577        -1.241013         3.647073
 H         1.068231        -2.237095         2.611720
 H         2.536476        -1.900039        -0.435896
