19
Iteration:  2658
 C         2.816512         1.043156        -0.233049
 C         1.680788         0.154052         0.089657
 C         0.579302        -0.293109        -0.846044
 C         0.332957        -1.330664         0.290940
 C         0.581643         0.001122         1.252185
 O         1.042019        -0.063976         2.611231
 C         1.704989        -1.317690         2.753497
 O         2.657076        -1.519722         1.610509
 C         1.995201        -1.287897         0.359925
 H         3.331753         1.292517         0.792326
 H         3.446387         0.406677        -0.855983
 H         2.329575         1.957950        -0.663558
 H        -0.199850         0.382638        -1.068178
 H         0.976159        -0.834225        -1.768753
 H        -0.458657        -2.080088         0.313513
 H        -0.341726         0.823462         1.224233
 H         2.311628        -1.311583         3.714015
 H         0.956308        -2.106440         2.689219
 H         2.601998        -1.797190        -0.432390
