19
Iteration:  4766
 C         2.642809         1.238099        -0.142290
 C         1.689296         0.156692         0.096114
 C         0.704389        -0.448357        -0.867988
 C         0.429638        -1.329923         0.396723
 C         0.632089         0.061193         1.149811
 O         1.185564         0.131699         2.395923
 C         1.626578        -1.229776         2.723512
 O         2.496243        -1.753295         1.745479
 C         1.993371        -1.514064         0.404967
 H         3.529911         1.226528         0.512861
 H         3.006206         1.270664        -1.212295
 H         2.255059         2.307793         0.071861
 H        -0.106349         0.310454        -1.230500
 H         1.092083        -0.981891        -1.725110
 H        -0.322473        -2.144956         0.542152
 H        -0.185180         0.833058         1.021478
 H         2.150519        -1.153858         3.752189
 H         0.723247        -1.899932         2.655914
 H         2.765894        -2.014256        -0.285871
