19
Iteration:  3933charge 0 multiplicity 1
 C         2.635472         1.261664        -0.103931
 C         1.695979         0.174862         0.005381
 C         0.678614        -0.503730        -0.934362
 C         0.479828        -1.216163         0.477824
 C         0.636720         0.124465         1.133676
 O         1.128422         0.007839         2.430362
 C         1.721534        -1.260785         2.761362
 O         2.488669        -1.815035         1.671766
 C         1.978468        -1.386447         0.452647
 H         3.372829         1.238347         0.691905
 H         3.159247         1.379040        -1.067334
 H         2.105380         2.252321         0.007292
 H        -0.195978         0.069497        -1.111507
 H         1.057480        -1.006784        -1.941772
 H        -0.250100        -2.072252         0.594647
 H        -0.111981         0.890983         0.897876
 H         2.242456        -1.232262         3.743038
 H         0.869869        -1.992284         2.971480
 H         2.394723        -1.925078        -0.437846
