19
Iteration:  3393charge 0 multiplicity 1
 C         2.678128         1.243613        -0.171303
 C         1.727412         0.137344         0.114224
 C         0.529941        -0.406793        -0.954678
 C         0.436046        -1.269731         0.362359
 C         0.606246         0.036026         1.172726
 O         1.259448         0.002295         2.531613
 C         1.672186        -1.289233         2.770098
 O         2.513916        -1.778321         1.648038
 C         1.966031        -1.335397         0.468490
 H         3.620001         1.412252         0.373160
 H         3.124637         1.202006        -1.234980
 H         2.211643         2.237850        -0.112536
 H        -0.256032         0.317041        -1.222720
 H         0.806942        -0.819654        -1.918897
 H        -0.368044        -2.010102         0.250903
 H        -0.165174         0.783313         1.119363
 H         2.360016        -1.255261         3.634985
 H         0.745941        -1.996870         2.904578
 H         2.593247        -1.833926        -0.311010
