19
Iteration:   406charge 0 multiplicity 1
 C         2.695450         1.146695        -0.373780
 C         1.776294         0.144448         0.137741
 C         0.571877        -0.395523        -0.837924
 C         0.490439        -1.274169         0.355179
 C         0.639976         0.114074         1.257313
 O         1.046124        -0.050644         2.577193
 C         1.812078        -1.222862         2.734588
 O         2.449374        -1.735011         1.671690
 C         1.966794        -1.326296         0.410110
 H         3.694718         1.281035         0.149346
 H         2.898292         1.029365        -1.419818
 H         2.086528         2.111931        -0.409841
 H        -0.113241         0.428707        -0.884615
 H         0.799267        -0.767610        -1.891374
 H        -0.054791        -2.154614         0.295923
 H        -0.339505         0.650574         1.128128
 H         2.483269        -1.114922         3.607809
 H         1.185660        -2.092531         3.116526
 H         2.428915        -2.022987        -0.370534
