19
Iteration:  4856charge 0 multiplicity 1
 C         2.873591         1.019249        -0.209715
 C         1.622044         0.150101         0.076497
 C         0.622846        -0.367064        -0.954047
 C         0.414907        -1.278140         0.326940
 C         0.594911         0.021611         1.118032
 O         1.068352        -0.110637         2.548883
 C         1.658042        -1.246367         2.854690
 O         2.603062        -1.431588         1.661709
 C         1.915269        -1.349098         0.436470
 H         3.265926         1.432197         0.756779
 H         3.579370         0.297791        -0.677692
 H         2.645682         1.885644        -0.892531
 H        -0.250356         0.386839        -0.976196
 H         0.769169        -0.851773        -1.875284
 H        -0.169103        -2.260714         0.346710
 H        -0.237297         0.705151         1.248374
 H         2.225002        -1.184079         3.821474
 H         1.073921        -2.081981         2.793331
 H         2.368910        -2.031096        -0.206166
