19
Iteration:  3541
 C         2.698723         1.221211        -0.247093
 C         1.792941         0.074343         0.092764
 C         0.633643        -0.360616        -0.931585
 C         0.363091        -1.199678         0.441107
 C         0.657396         0.014315         1.241321
 O         1.068487        -0.079850         2.563937
 C         1.725700        -1.278984         2.673696
 O         2.564019        -1.600006         1.648159
 C         1.936783        -1.466462         0.415075
 H         3.467807         1.347945         0.525476
 H         3.220411         1.282697        -1.164695
 H         2.265547         2.272579        -0.334689
 H        -0.146684         0.368960        -1.136230
 H         1.060186        -0.876158        -1.868774
 H        -0.539867        -1.842501         0.705465
 H        -0.125038         0.807878         1.049720
 H         2.289801        -1.266419         3.636285
 H         0.931092        -2.061305         2.840984
 H         2.194499        -2.192545        -0.372581
