19
Iteration:  3854
 C         2.916470         1.157847        -0.244332
 C         1.672289         0.177321         0.047390
 C         0.513024        -0.426919        -0.912455
 C         0.461420        -1.286928         0.435539
 C         0.614650         0.093498         1.177467
 O         1.040245        -0.130277         2.564242
 C         1.682981        -1.339416         2.730728
 O         2.598327        -1.507778         1.632969
 C         1.905916        -1.316344         0.424143
 H         3.181498         1.359460         0.810141
 H         3.707646         0.525435        -0.693962
 H         2.609115         2.047156        -0.717373
 H        -0.361509         0.209376        -1.203469
 H         0.908381        -0.961184        -1.797132
 H        -0.254432        -2.067287         0.657150
 H        -0.249667         0.790505         1.182707
 H         2.219893        -1.125547         3.649029
 H         0.912348        -2.175303         2.824201
 H         2.343034        -2.079556        -0.274639
