19
Iteration:   473
 C         2.760790         1.147391         0.029748
 C         1.634007         0.105806        -0.033795
 C         0.504850        -0.519161        -0.878365
 C         0.371376        -1.270389         0.399745
 C         0.613308         0.050482         1.238917
 O         1.179158         0.098376         2.542497
 C         1.723021        -1.192206         2.592670
 O         2.639088        -1.607471         1.570285
 C         1.971996        -1.407153         0.370150
 H         3.227366         1.026245         1.013111
 H         3.428786         0.802353        -0.765391
 H         2.496979         2.187560        -0.254600
 H        -0.318295         0.178886        -1.086471
 H         0.710167        -1.210886        -1.707818
 H        -0.445166        -1.886829         0.604679
 H        -0.381276         0.570011         1.333439
 H         2.433219        -1.246538         3.376007
 H         0.972570        -1.991017         2.789697
 H         2.273025        -2.234405        -0.247825
