19
Iteration:  2053
 C         2.594006         1.265035        -0.101532
 C         1.752318         0.070578         0.006386
 C         0.603839        -0.355289        -0.925851
 C         0.299123        -1.212086         0.377695
 C         0.677240         0.027854         1.151041
 O         1.215783        -0.031976         2.550863
 C         1.792175        -1.281777         2.731780
 O         2.569095        -1.641477         1.627720
 C         1.884414        -1.494201         0.422220
 H         3.235309         1.296782         0.757567
 H         3.395005         1.276803        -0.833700
 H         2.110445         2.190630        -0.055170
 H        -0.157736         0.427507        -1.162607
 H         0.803551        -0.990028        -1.777984
 H        -0.587797        -1.898749         0.348405
 H        -0.044841         0.840127         1.223332
 H         2.405992        -1.362046         3.610419
 H         1.063016        -2.103997         2.809855
 H         2.420882        -2.128019        -0.226614
