19
Iteration:   358charge 0 multiplicity 1
 C         2.655747         1.210612        -0.264365
 C         1.752287         0.052409         0.059682
 C         0.611592        -0.399449        -0.896894
 C         0.286035        -1.200135         0.391349
 C         0.629408         0.096018         1.223116
 O         1.157427        -0.012382         2.548503
 C         1.722399        -1.338484         2.728267
 O         2.599170        -1.621221         1.652718
 C         1.970385        -1.439463         0.471611
 H         3.300303         1.463621         0.558421
 H         3.362833         0.958275        -1.097293
 H         2.147748         2.063673        -0.647369
 H        -0.184466         0.331138        -1.195923
 H         0.833874        -1.040213        -1.729729
 H        -0.582739        -1.881846         0.533784
 H         0.110214         1.009905         1.152523
 H         2.320504        -1.259470         3.640675
 H         1.070045        -2.222296         2.858914
 H         2.419628        -2.046296        -0.347884
