19
Iteration:  1649
 C         2.794086         1.157477        -0.309113
 C         1.681802         0.172089        -0.003200
 C         0.541732        -0.383802        -0.899514
 C         0.377085        -1.165118         0.396949
 C         0.629709         0.062291         1.247247
 O         0.974092        -0.199073         2.580207
 C         1.840808        -1.302316         2.784875
 O         2.596923        -1.584340         1.647400
 C         1.938253        -1.326507         0.422034
 H         3.356761         1.160942         0.601789
 H         3.591842         0.846551        -1.032986
 H         2.512179         2.151452        -0.607836
 H        -0.403521         0.232246        -0.872007
 H         0.776095        -0.696878        -1.954635
 H        -0.281260        -2.007382         0.575302
 H        -0.210563         0.745454         1.145872
 H         2.581488        -1.156355         3.640766
 H         1.340617        -2.324089         3.025933
 H         2.387431        -1.969202        -0.339209
