19
Iteration:    24charge 0 multiplicity 1
 C         2.729998         1.177634        -0.214244
 C         1.692944         0.122378         0.071582
 C         0.579917        -0.270485        -0.863632
 C         0.428125        -1.299294         0.300188
 C         0.574267        -0.010485         1.149674
 O         0.998325        -0.006290         2.540096
 C         1.982705        -1.090420         2.839333
 O         2.478882        -1.839366         1.644614
 C         1.946422        -1.459123         0.397932
 H         3.376780         1.392052         0.675427
 H         3.344919         0.924570        -1.060390
 H         2.195860         2.134184        -0.497586
 H        -0.248456         0.414905        -0.915322
 H         0.799892        -0.663765        -1.884912
 H        -0.372548        -2.103270         0.514088
 H        -0.198497         0.757758         1.106236
 H         2.833139        -0.548387         3.326250
 H         1.428844        -1.783599         3.462867
 H         2.420328        -2.030488        -0.357910
