19
Iteration:  1296charge 0 multiplicity 1
 C         2.654781         1.316504        -0.247124
 C         1.749554         0.032887         0.071592
 C         0.587763        -0.398587        -0.829985
 C         0.316500        -1.211240         0.448045
 C         0.700115         0.084383         1.215841
 O         1.001997        -0.133698         2.519933
 C         1.791861        -1.266147         2.719659
 O         2.642044        -1.624007         1.606055
 C         1.945307        -1.447058         0.405986
 H         3.120933         1.834496         0.631491
 H         3.477998         0.816925        -0.722606
 H         2.209124         2.026477        -0.985761
 H        -0.065755         0.398341        -1.179982
 H         0.819906        -1.007192        -1.733289
 H        -0.306464        -1.996369         0.902050
 H         0.005308         0.901634         1.164103
 H         2.410294        -1.018210         3.593946
 H         1.108266        -2.167950         2.795183
 H         2.398565        -1.981725        -0.393815
