19
Iteration:  2526
 C         2.737683         1.250150        -0.221908
 C         1.818792         0.086735         0.064211
 C         0.614169        -0.445028        -0.918493
 C         0.357736        -1.139903         0.415928
 C         0.627385         0.094253         1.220257
 O         1.072814        -0.116650         2.587718
 C         1.717266        -1.393802         2.693203
 O         2.605206        -1.551141         1.626859
 C         1.888143        -1.424949         0.418291
 H         3.370071         1.765067         0.614808
 H         3.279615         1.060240        -1.127635
 H         2.042423         2.021144        -0.588166
 H        -0.186033         0.245051        -1.150231
 H         0.955311        -1.116199        -1.750248
 H        -0.493849        -1.808057         0.528772
 H        -0.027153         0.943485         1.353717
 H         2.214983        -1.416588         3.655914
 H         0.939255        -2.241172         2.744677
 H         2.361960        -2.081324        -0.275618
