19
Iteration:  3571charge 0 multiplicity 1
 C         2.621690         1.304061        -0.209685
 C         1.705161         0.147930         0.036507
 C         0.585944        -0.454859        -0.947692
 C         0.447121        -1.250461         0.357988
 C         0.609542         0.099308         1.193572
 O         1.238776        -0.002173         2.482377
 C         1.689294        -1.273022         2.744432
 O         2.479560        -1.828896         1.710001
 C         2.006769        -1.341588         0.466572
 H         3.478797         1.014486         0.524846
 H         3.341198         1.467688        -1.086681
 H         2.280808         2.292760         0.147336
 H        -0.305996         0.209278        -0.942674
 H         0.929838        -0.936567        -1.807766
 H        -0.354498        -1.973126         0.446770
 H        -0.172878         0.794092         1.202265
 H         2.417327        -1.258062         3.564579
 H         0.807396        -1.945834         2.825270
 H         2.534442        -2.131124        -0.160555
