19
Iteration:  4439
 C         2.623804         1.350841        -0.109442
 C         1.702577         0.127938        -0.015170
 C         0.701904        -0.545892        -0.974653
 C         0.462869        -1.267010         0.395877
 C         0.733266         0.088676         1.116377
 O         1.185229         0.075483         2.415122
 C         1.602280        -1.275017         2.759542
 O         2.518926        -1.734214         1.760651
 C         1.892343        -1.467492         0.484365
 H         3.178779         1.603898         0.784503
 H         3.356753         1.044350        -0.871494
 H         2.121570         2.303402        -0.313416
 H        -0.065757         0.112892        -1.478714
 H         1.217908        -1.244061        -1.538131
 H        -0.444963        -1.897772         0.726740
 H         0.008226         0.941790         1.201453
 H         2.008681        -1.295123         3.849484
 H         0.683475        -1.934673         2.682311
 H         2.479097        -2.223201        -0.246917
