19
Iteration:  2151
 C         2.789604         1.155072        -0.265327
 C         1.769514         0.085831         0.092719
 C         0.612928        -0.290752        -0.832730
 C         0.348967        -1.199255         0.386421
 C         0.609609         0.053188         1.297564
 O         0.957424        -0.189594         2.553677
 C         1.772803        -1.325012         2.667950
 O         2.701079        -1.501869         1.618990
 C         1.837681        -1.413788         0.442355
 H         3.443375         1.677690         0.404487
 H         3.410045         0.970703        -1.185757
 H         2.197719         1.973100        -0.654030
 H        -0.197099         0.419798        -1.262721
 H         0.971228        -0.923717        -1.673303
 H        -0.356761        -2.083360         0.447778
 H        -0.108238         0.871926         1.261148
 H         2.345637        -1.248096         3.555378
 H         1.145432        -2.214528         2.636494
 H         2.154189        -2.146868        -0.257953
