19
Iteration:  1673
 C         2.701366         1.220046        -0.160187
 C         1.736147         0.045823         0.094854
 C         0.624029        -0.385040        -0.910017
 C         0.218244        -1.154477         0.377338
 C         0.591397         0.106401         1.285489
 O         1.072570        -0.115860         2.579837
 C         1.820939        -1.279473         2.695850
 O         2.668901        -1.564319         1.583409
 C         1.908978        -1.451525         0.399753
 H         3.343717         1.620533         0.647687
 H         3.460606         0.813637        -0.919289
 H         2.165397         1.916531        -0.717129
 H        -0.092994         0.211453        -1.612812
 H         1.135365        -1.068857        -1.663563
 H        -0.433883        -1.925621         0.552270
 H        -0.133260         0.943493         1.156515
 H         2.491118        -1.271586         3.586066
 H         1.237859        -2.276014         2.789451
 H         2.182940        -2.280628        -0.328151
