19
Iteration:  4812charge 0 multiplicity 1
 C         2.749185         1.237600        -0.208613
 C         1.786767         0.076344        -0.002695
 C         0.643982        -0.471368        -0.904659
 C         0.430444        -1.255924         0.402175
 C         0.680217         0.067377         1.179176
 O         0.993468        -0.021510         2.529319
 C         1.656663        -1.225785         2.750406
 O         2.542871        -1.663489         1.680673
 C         1.933442        -1.405338         0.438005
 H         3.369486         1.505973         0.677537
 H         3.497636         1.074894        -1.018459
 H         2.233525         2.206900        -0.472831
 H        -0.268252         0.113336        -1.362325
 H         1.251438        -0.920780        -1.694519
 H        -0.459510        -1.889879         0.707397
 H        -0.048935         0.892084         1.161215
 H         2.411707        -1.132122         3.602660
 H         0.937789        -2.022810         2.883944
 H         2.356346        -2.128566        -0.195017
