19
Iteration:  3948charge 0 multiplicity 1
 C         2.700584         1.283471        -0.108799
 C         1.716009         0.097435         0.098479
 C         0.613864        -0.406271        -0.866838
 C         0.431842        -1.322903         0.324535
 C         0.609526         0.029349         1.112659
 O         1.144852         0.073358         2.461892
 C         1.666441        -1.259945         2.699431
 O         2.539339        -1.700867         1.700091
 C         1.993672        -1.441765         0.417223
 H         3.526188         1.134076         0.619062
 H         3.071485         1.106375        -1.098676
 H         2.250583         2.280142         0.107683
 H        -0.210031         0.294890        -1.218983
 H         0.940596        -1.061317        -1.688791
 H        -0.423261        -1.974162         0.553826
 H        -0.244592         0.678003         1.242750
 H         2.384142        -1.063951         3.523181
 H         0.823847        -1.996485         2.937613
 H         2.588051        -2.092338        -0.198799
