19
Iteration:  4841
 C         2.818367         1.030599        -0.233202
 C         1.693254         0.142341         0.067164
 C         0.563175        -0.341755        -0.899985
 C         0.371493        -1.287170         0.309282
 C         0.542139         0.025748         1.211037
 O         0.976181        -0.036874         2.496672
 C         1.722605        -1.255396         2.724346
 O         2.663113        -1.580020         1.751712
 C         2.004415        -1.330829         0.459113
 H         3.351033         1.414376         0.623755
 H         3.630195         0.476580        -0.744162
 H         2.602321         1.888879        -0.878228
 H        -0.218434         0.260438        -1.231797
 H         1.076289        -0.719709        -1.791218
 H        -0.483260        -1.913053         0.483613
 H        -0.252764         0.794702         1.124715
 H         2.253450        -1.145190         3.672577
 H         1.019573        -2.096350         2.958162
 H         2.637765        -1.873595        -0.346094
