19
Iteration:   138
 C         2.725966         1.093439        -0.114908
 C         1.653906         0.166772         0.115418
 C         0.620106        -0.406865        -0.898645
 C         0.330848        -1.235138         0.301584
 C         0.604226         0.078151         1.161998
 O         0.933513        -0.100198         2.547790
 C         1.990897        -0.966115         2.810556
 O         2.546138        -1.823147         1.597022
 C         1.949240        -1.426023         0.395205
 H         3.508363         1.203373         0.643432
 H         3.275529         0.759840        -1.085018
 H         2.333877         2.102308        -0.335683
 H        -0.095896         0.437950        -1.108466
 H         0.982815        -0.853933        -1.807003
 H        -0.590411        -1.864114         0.593367
 H        -0.296845         0.647157         1.035145
 H         2.977043        -0.533444         3.097449
 H         1.761825        -1.848860         3.386026
 H         2.390448        -1.920083        -0.494126
