19
Iteration:  1231
 C         2.649701         1.199378        -0.140354
 C         1.691553         0.138754         0.061681
 C         0.533174        -0.402994        -0.848876
 C         0.457093        -1.322836         0.395682
 C         0.582175         0.038853         1.229501
 O         1.202063        -0.002154         2.444300
 C         1.728118        -1.291475         2.676647
 O         2.600835        -1.595322         1.671792
 C         1.931305        -1.387432         0.389599
 H         3.390953         1.068421         0.685316
 H         3.258013         0.964740        -0.977649
 H         2.266533         2.236027        -0.220748
 H        -0.227801         0.344900        -1.019081
 H         0.690884        -1.025492        -1.776264
 H        -0.144901        -2.138852         0.579655
 H        -0.208505         0.794401         1.239739
 H         2.314470        -1.213259         3.583040
 H         0.880246        -2.056172         2.682633
 H         2.495329        -2.061328        -0.308310
