19
Iteration:  2733charge 0 multiplicity 1
 C         2.621998         1.336492        -0.204024
 C         1.796764         0.124202         0.109541
 C         0.684879        -0.363977        -0.854237
 C         0.322248        -1.245980         0.373942
 C         0.632004         0.051105         1.165620
 O         1.166765         0.018471         2.495640
 C         1.708286        -1.296408         2.736186
 O         2.549461        -1.792202         1.633109
 C         1.939600        -1.492428         0.436022
 H         3.180312         1.401892         0.808179
 H         3.152752         1.258579        -1.102150
 H         1.828862         2.071192        -0.113277
 H         0.074272         0.495256        -1.101358
 H         1.127791        -0.870130        -1.745220
 H        -0.413215        -2.076453         0.325305
 H        -0.116954         0.908403         1.105619
 H         2.377615        -1.165651         3.638338
 H         0.913511        -2.010644         2.940366
 H         2.385269        -1.978590        -0.478489
