19
Iteration:  1093
 C         2.559003         1.272482        -0.182766
 C         1.729341         0.012742        -0.006637
 C         0.605923        -0.442863        -0.915320
 C         0.297739        -1.227019         0.390953
 C         0.641665         0.131990         1.207117
 O         1.250887        -0.009671         2.532072
 C         1.743803        -1.395189         2.731221
 O         2.629477        -1.621230         1.649246
 C         1.954950        -1.385698         0.469784
 H         2.916988         1.547487         0.784469
 H         3.428861         0.854548        -0.743660
 H         2.054779         2.097202        -0.785114
 H         0.082782         0.498503        -1.020534
 H         0.814105        -1.015471        -1.875129
 H        -0.495039        -2.057355         0.586337
 H        -0.107601         0.995379         1.263514
 H         2.242419        -1.332420         3.659399
 H         0.788453        -2.061376         2.751306
 H         2.244759        -2.013428        -0.359113
