19
Iteration:  4634
 C         2.660587         1.217551        -0.192719
 C         1.772113         0.022562         0.010134
 C         0.729958        -0.402422        -1.000173
 C         0.437401        -1.282753         0.478488
 C         0.640304         0.112244         1.160191
 O         1.126583         0.055892         2.531897
 C         1.599903        -1.218851         2.693545
 O         2.543217        -1.678948         1.693863
 C         1.956687        -1.485862         0.469710
 H         3.027294         1.429700         0.841537
 H         3.548410         1.188465        -0.858236
 H         1.952863         2.068647        -0.541980
 H        -0.154646         0.264975        -1.299926
 H         1.151038        -0.964503        -1.895099
 H        -0.525901        -1.822125         0.512077
 H        -0.376643         0.563395         1.287645
 H         2.152981        -1.197576         3.689169
 H         0.917972        -1.986803         2.925224
 H         2.467343        -2.108236        -0.208590
