19
Iteration:  1521charge 0 multiplicity 1
 C         2.716500         1.174401        -0.171419
 C         1.618570         0.194174         0.046270
 C         0.497275        -0.353413        -0.965295
 C         0.445426        -1.358138         0.236943
 C         0.555996         0.031703         1.282859
 O         1.178090         0.039803         2.538359
 C         1.825902        -1.297009         2.839628
 O         2.598019        -1.764660         1.702793
 C         1.946428        -1.293813         0.350632
 H         3.077904         1.556482         0.835229
 H         3.455479         0.694537        -0.917192
 H         2.252329         1.968228        -0.702204
 H        -0.298728         0.399822        -1.185119
 H         0.838337        -0.733090        -1.890021
 H        -0.267120        -2.112903         0.555308
 H        -0.395404         0.639507         1.249994
 H         2.574755        -1.198409         3.681123
 H         0.969943        -1.952009         3.076094
 H         2.539986        -1.824151        -0.500965
