19
Iteration:  1669charge 0 multiplicity 1
 C         2.775693         1.246322        -0.178999
 C         1.747246         0.059722         0.051823
 C         0.580790        -0.359724        -0.914582
 C         0.234822        -1.195295         0.359702
 C         0.564378         0.112381         1.270740
 O         1.044591        -0.133684         2.603172
 C         1.834842        -1.304981         2.726116
 O         2.687035        -1.565232         1.593095
 C         1.896212        -1.433441         0.390425
 H         3.338969         1.586784         0.652345
 H         3.374418         0.821497        -0.971977
 H         2.127567         1.942415        -0.804469
 H         0.039963         0.213835        -1.602430
 H         1.037977        -1.152356        -1.541828
 H        -0.607893        -1.976039         0.671970
 H        -0.111693         0.947982         1.228042
 H         2.513172        -1.226409         3.627991
 H         1.213714        -2.241399         2.893086
 H         2.195103        -2.212744        -0.258076
