19
Iteration:  3162
 C         2.811665         1.028802        -0.140285
 C         1.749005         0.057616         0.074504
 C         0.619611        -0.333189        -0.925940
 C         0.360050        -1.220898         0.378748
 C         0.606647         0.060437         1.293170
 O         1.006275        -0.105562         2.630806
 C         1.812244        -1.309468         2.654764
 O         2.586621        -1.437409         1.618513
 C         1.856950        -1.386597         0.357512
 H         3.496649         1.348126         0.642325
 H         3.429623         0.798848        -1.068698
 H         2.197831         1.967817        -0.489932
 H        -0.184116         0.360981        -1.215247
 H         0.927310        -0.845433        -1.914638
 H        -0.407667        -2.003753         0.386106
 H        -0.032665         0.845621         1.130895
 H         2.423083        -1.290918         3.563633
 H         1.018004        -2.178839         2.606378
 H         2.284379        -2.054056        -0.436380
