19
Iteration:  1586charge 0 multiplicity 1
 C         2.622113         1.231935        -0.114289
 C         1.711126         0.086011         0.001128
 C         0.576378        -0.505447        -0.920743
 C         0.286009        -1.205624         0.434336
 C         0.755832         0.112981         1.140865
 O         1.100345        -0.075249         2.513917
 C         1.757549        -1.393066         2.751668
 O         2.640540        -1.586759         1.633491
 C         1.929075        -1.293773         0.398260
 H         3.558192         1.052783         0.537409
 H         3.091461         1.234464        -1.203124
 H         2.183368         2.176255         0.124484
 H        -0.315085         0.127035        -1.259029
 H         1.081770        -1.073480        -1.727895
 H        -0.412084        -1.852087         0.903411
 H         0.010784         0.969460         1.281429
 H         2.253718        -1.322833         3.749928
 H         1.015194        -2.131994         2.835160
 H         2.458152        -1.966018        -0.404759
