19
Iteration:  4581
 C         2.678869         1.240513        -0.145062
 C         1.726365         0.085725         0.031742
 C         0.687805        -0.413314        -0.963174
 C         0.526729        -1.307171         0.385892
 C         0.584968         0.061692         1.136446
 O         1.084721         0.090094         2.459066
 C         1.706907        -1.206876         2.759092
 O         2.506578        -1.755040         1.746449
 C         1.912682        -1.396683         0.426277
 H         3.484453         1.105646         0.531864
 H         3.140979         0.882545        -1.048636
 H         2.387044         2.254646        -0.062116
 H        -0.208866         0.199286        -1.254734
 H         1.252721        -0.947289        -1.667269
 H        -0.122053        -2.267779         0.550262
 H        -0.253973         0.805635         1.096904
 H         2.293794        -1.143302         3.778510
 H         0.795350        -1.931914         2.948127
 H         2.311180        -2.065068        -0.243153
