19
Iteration:  1412
 C         2.674409         1.262037        -0.207344
 C         1.662085         0.153134         0.021079
 C         0.563427        -0.367829        -0.917467
 C         0.401200        -1.226787         0.356599
 C         0.606221         0.011065         1.195830
 O         1.106658         0.000831         2.528906
 C         1.811376        -1.272607         2.810774
 O         2.608663        -1.762485         1.687095
 C         1.945445        -1.414569         0.379418
 H         3.564489         1.122900         0.448667
 H         3.065887         1.299497        -1.262730
 H         2.267346         2.206655         0.021353
 H        -0.399451         0.049983        -1.236266
 H         1.016467        -0.886124        -1.713493
 H        -0.296458        -2.067102         0.539074
 H        -0.237472         0.743162         1.245339
 H         2.570435        -1.087185         3.621323
 H         0.924483        -1.913691         3.071194
 H         2.544755        -2.000556        -0.362615
