19
Iteration:  1659
 C         2.845534         1.215832        -0.290172
 C         1.710821         0.143703        -0.003595
 C         0.548310        -0.385780        -0.927937
 C         0.299501        -1.212592         0.404207
 C         0.580170         0.053527         1.206329
 O         0.979571        -0.165540         2.631872
 C         1.873774        -1.358113         2.783593
 O         2.674951        -1.573468         1.631459
 C         1.865828        -1.365410         0.412265
 H         3.294438         1.504598         0.628252
 H         3.613149         0.924400        -1.024398
 H         2.367017         2.176484        -0.556146
 H        -0.098016         0.436361        -1.257003
 H         0.803816        -1.106508        -1.761214
 H        -0.595655        -1.874191         0.542827
 H        -0.092636         0.872592         1.374159
 H         2.541352        -1.041812         3.637811
 H         1.116246        -2.183260         3.033771
 H         2.323566        -1.965721        -0.351678
