19
Iteration:  3454
 C         2.660542         1.207067        -0.124963
 C         1.685157         0.040580         0.022717
 C         0.623817        -0.343320        -0.938253
 C         0.344517        -1.193320         0.408031
 C         0.656694         0.060882         1.175313
 O         1.154071        -0.031038         2.496373
 C         1.740655        -1.312118         2.762703
 O         2.638183        -1.624037         1.664144
 C         1.908966        -1.447647         0.402906
 H         3.066592         1.225675         0.889831
 H         3.404713         0.872721        -0.822688
 H         2.036517         2.122125        -0.357806
 H        -0.157676         0.419128        -1.070242
 H         0.976277        -0.985005        -1.837241
 H        -0.578878        -1.823076         0.299535
 H        -0.060638         0.981684         1.271423
 H         2.400788        -1.177940         3.645539
 H         0.981644        -2.181437         2.832739
 H         2.252052        -2.101336        -0.427490
