19
Iteration:  2953charge 0 multiplicity 1
 C         2.765365         1.164525        -0.116245
 C         1.629810         0.084794         0.037534
 C         0.618310        -0.315283        -0.894873
 C         0.398863        -1.329109         0.292553
 C         0.512050         0.042914         1.148936
 O         1.114294        -0.006126         2.545241
 C         1.811074        -1.234800         2.733332
 O         2.569564        -1.694949         1.653578
 C         1.955184        -1.374395         0.443116
 H         3.456486         1.021292         0.796671
 H         3.288657         1.082487        -1.020484
 H         2.359560         2.236579        -0.105835
 H        -0.116199         0.444354        -1.091782
 H         0.882904        -0.859476        -1.898018
 H        -0.426209        -2.010019         0.420361
 H        -0.290973         0.755314         1.184196
 H         2.442834        -1.077719         3.612920
 H         0.975596        -1.921569         2.936049
 H         2.631553        -1.904606        -0.254613
