19
Iteration:  2010
 C         2.802068         1.106247        -0.306274
 C         1.598485         0.230890         0.077035
 C         0.571631        -0.340377        -0.829421
 C         0.447762        -1.244925         0.316533
 C         0.551858         0.015730         1.294004
 O         1.020336        -0.112491         2.595152
 C         1.762001        -1.290222         2.738355
 O         2.604957        -1.685761         1.629687
 C         2.016037        -1.251003         0.341738
 H         3.461907         1.185871         0.578392
 H         3.286109         0.603217        -1.179373
 H         2.625256         2.094448        -0.630162
 H        -0.295579         0.308508        -0.950674
 H         0.915223        -0.721263        -1.742998
 H        -0.415679        -1.951921         0.474936
 H        -0.264227         0.714683         1.472121
 H         2.399561        -1.196098         3.587187
 H         1.107919        -2.136084         3.046727
 H         2.608084        -1.828787        -0.342170
