19
Iteration:  3862
 C         2.838318         1.149161        -0.192779
 C         1.747259         0.188004        -0.010030
 C         0.521333        -0.431145        -0.856829
 C         0.409604        -1.301041         0.364626
 C         0.617945         0.072493         1.212465
 O         1.016112        -0.061465         2.580913
 C         1.670704        -1.298350         2.673252
 O         2.622815        -1.611419         1.684019
 C         1.994975        -1.304787         0.409291
 H         3.399684         1.630469         0.679249
 H         3.602941         0.590825        -0.818554
 H         2.643344         2.070398        -0.812681
 H        -0.501739         0.075450        -1.082095
 H         0.742973        -0.848148        -1.797212
 H        -0.420284        -1.909160         0.743636
 H        -0.337849         0.731538         1.026529
 H         2.135013        -1.236610         3.687531
 H         1.091071        -2.211964         2.829206
 H         2.257664        -1.998944        -0.397002
