19
Iteration:   613charge 0 multiplicity 1
 C         2.738204         1.174740        -0.116200
 C         1.663732         0.143854         0.002021
 C         0.512577        -0.485065        -0.906757
 C         0.350436        -1.276404         0.486540
 C         0.594161         0.103381         1.132744
 O         1.143972         0.017388         2.548931
 C         1.795204        -1.247205         2.639835
 O         2.652303        -1.662015         1.653072
 C         1.937283        -1.364189         0.379400
 H         3.455280         0.872225         0.706822
 H         3.262544         1.115909        -1.067303
 H         2.390590         2.204821         0.183884
 H        -0.416707         0.021315        -1.066929
 H         0.770458        -1.185400        -1.785058
 H        -0.493316        -2.007221         0.717711
 H        -0.047952         0.997726         1.182696
 H         2.193131        -1.320813         3.628055
 H         0.936252        -1.873202         2.667101
 H         2.549898        -2.079477        -0.319062
