19
Iteration:  3805
 C         2.773320         1.182117        -0.124151
 C         1.730681         0.094486         0.018717
 C         0.631156        -0.348105        -0.866859
 C         0.376336        -1.290302         0.389769
 C         0.594482         0.070799         1.186098
 O         1.009255        -0.037789         2.473542
 C         1.801439        -1.283059         2.723196
 O         2.626758        -1.609750         1.678520
 C         1.887777        -1.423226         0.395576
 H         3.509053         1.161043         0.675226
 H         3.216585         0.840752        -1.046247
 H         2.219568         2.160971        -0.300511
 H        -0.241330         0.272492        -1.023675
 H         0.896112        -0.867277        -1.805537
 H        -0.409162        -2.048779         0.616665
 H        -0.180846         0.843640         1.051206
 H         2.277085        -0.914625         3.603701
 H         1.028651        -2.023313         2.892569
 H         2.402321        -2.079852        -0.271111
