19
Iteration:  1188
 C         2.737154         1.166002        -0.150928
 C         1.665613         0.059730         0.016771
 C         0.599903        -0.482329        -0.907723
 C         0.363718        -1.215165         0.479490
 C         0.643031         0.101378         1.239878
 O         1.013758        -0.104757         2.500530
 C         1.851116        -1.288844         2.683462
 O         2.626131        -1.518648         1.596826
 C         1.879016        -1.367437         0.420579
 H         3.667265         1.002086         0.438870
 H         3.007508         1.331018        -1.159797
 H         2.276527         2.146205         0.146694
 H        -0.170792         0.237473        -1.037955
 H         0.982580        -1.040202        -1.805600
 H        -0.245589        -2.040202         0.569146
 H        -0.075857         0.940924         1.248977
 H         2.464447        -0.997372         3.510298
 H         1.145274        -2.078954         2.949941
 H         2.268129        -2.188970        -0.305154
