19
Iteration:   802
 C         2.631996         1.112569        -0.176045
 C         1.675322         0.031840         0.122890
 C         0.626766        -0.362357        -0.956347
 C         0.272845        -1.198786         0.394402
 C         0.546052         0.169789         1.150097
 O         1.096954        -0.031194         2.531787
 C         1.904475        -1.283227         2.729315
 O         2.658892        -1.672879         1.681124
 C         1.975410        -1.440785         0.421850
 H         3.558681         1.237214         0.371961
 H         2.871243         0.893226        -1.288725
 H         2.075301         2.038962        -0.061891
 H        -0.086763         0.476899        -1.133203
 H         0.996488        -0.758959        -1.844103
 H        -0.488429        -1.873385         0.573071
 H        -0.102009         1.049566         1.096403
 H         2.403994        -1.111606         3.681992
 H         1.104915        -2.038209         2.999657
 H         2.416737        -1.985053        -0.537599
