19
Iteration:   345charge 0 multiplicity 1
 C         2.693483         1.131130        -0.144839
 C         1.712266         0.045334         0.079227
 C         0.560969        -0.476812        -0.814245
 C         0.249267        -1.226606         0.467593
 C         0.737276         0.069623         1.148440
 O         1.166845        -0.012340         2.518916
 C         1.682671        -1.247037         2.663748
 O         2.615690        -1.575573         1.619172
 C         2.012393        -1.376796         0.340773
 H         3.138540         1.503511         0.730138
 H         3.457204         0.887084        -0.929582
 H         2.037253         1.896280        -0.488520
 H        -0.056316         0.425286        -1.121274
 H         1.002706        -0.948668        -1.634176
 H        -0.720874        -1.872215         0.700219
 H        -0.064528         0.771251         1.213215
 H         2.183464        -1.428208         3.663275
 H         0.729945        -1.817868         2.615967
 H         2.434903        -2.018405        -0.353821
