19
Iteration:  3377charge 0 multiplicity 1
 C         2.729058         1.253705        -0.213813
 C         1.690914         0.115302         0.072665
 C         0.598723        -0.346759        -0.868697
 C         0.258935        -1.222848         0.312933
 C         0.634893         0.066959         1.189156
 O         1.153427        -0.065131         2.469100
 C         1.717663        -1.346992         2.746518
 O         2.633443        -1.654287         1.750755
 C         1.983890        -1.419493         0.385117
 H         3.467566         1.137702         0.582722
 H         3.092998         1.125400        -1.199975
 H         2.247297         2.244531        -0.263426
 H        -0.162315         0.422785        -1.090465
 H         0.898991        -0.953077        -1.765753
 H        -0.498335        -1.961220         0.605926
 H        -0.139309         0.900621         1.375853
 H         2.165192        -1.353395         3.743285
 H         0.996323        -2.101638         2.821979
 H         2.413210        -2.133504        -0.320625
