19
Iteration:  4046charge 0 multiplicity 1
 C         2.782365         1.168751        -0.194030
 C         1.715077         0.069980         0.097551
 C         0.602341        -0.377404        -0.852969
 C         0.386180        -1.278152         0.289171
 C         0.594513         0.061631         1.118870
 O         1.107500        -0.007966         2.478685
 C         1.699204        -1.340013         2.779744
 O         2.549955        -1.566696         1.716089
 C         1.947239        -1.402009         0.447596
 H         3.236008         1.768580         0.642533
 H         3.520910         0.795399        -0.877434
 H         2.171227         1.900449        -0.747945
 H        -0.157267         0.493959        -0.937956
 H         0.997831        -0.731961        -1.804340
 H        -0.144776        -2.185760         0.305612
 H        -0.210265         0.757439         1.120691
 H         2.211044        -1.262380         3.724252
 H         0.972524        -2.210283         2.918404
 H         2.593977        -1.946442        -0.195621
