19
Iteration:  1035
 C         2.715374         1.161468        -0.218241
 C         1.681319         0.122537         0.102547
 C         0.538967        -0.347505        -0.889450
 C         0.381039        -1.243250         0.345053
 C         0.610518        -0.000060         1.213244
 O         1.118226        -0.070998         2.491989
 C         1.833109        -1.220761         2.813916
 O         2.556959        -1.637710         1.614082
 C         1.903170        -1.391353         0.406460
 H         3.469006         1.363039         0.605328
 H         3.354929         0.901381        -1.045978
 H         2.290098         2.175517        -0.425515
 H        -0.219950         0.314116        -1.239677
 H         1.034305        -0.838110        -1.725797
 H        -0.328512        -1.952015         0.615512
 H        -0.340968         0.594794         1.344435
 H         2.672696        -1.004570         3.520626
 H         1.248808        -2.123131         3.225682
 H         2.485114        -2.048832        -0.362208
