19
Iteration:  4630
 C         2.651210         1.237703        -0.195183
 C         1.773495         0.056170         0.012803
 C         0.722737        -0.409105        -1.038935
 C         0.420865        -1.280864         0.463241
 C         0.664970         0.127697         1.166277
 O         1.145511         0.055703         2.518562
 C         1.614263        -1.238815         2.719102
 O         2.532956        -1.685485         1.724457
 C         1.924032        -1.497629         0.460007
 H         2.967227         1.493832         0.875973
 H         3.517468         1.181464        -0.889041
 H         1.854759         2.012229        -0.362190
 H        -0.049100         0.251659        -1.305161
 H         1.174046        -0.998714        -1.905499
 H        -0.425312        -1.924358         0.553012
 H        -0.318571         0.593222         1.217716
 H         2.157187        -1.120070         3.600118
 H         0.886355        -2.055803         3.029433
 H         2.561539        -2.280267        -0.256793
