19
Iteration:  1988
 C         2.814655         1.145735        -0.288459
 C         1.675318         0.078445         0.103258
 C         0.590808        -0.241791        -0.927421
 C         0.379947        -1.264203         0.367814
 C         0.586153         0.019512         1.199196
 O         1.064252        -0.152733         2.611456
 C         1.797080        -1.373060         2.714050
 O         2.629549        -1.458249         1.650818
 C         1.872678        -1.355103         0.446071
 H         3.493770         1.364872         0.542639
 H         3.186617         0.712640        -1.241111
 H         2.398229         2.063488        -0.620127
 H        -0.217856         0.476149        -1.086326
 H         0.778118        -0.797349        -1.793773
 H        -0.412219        -2.086641         0.607674
 H        -0.200485         0.796091         1.334076
 H         2.291484        -1.570581         3.667938
 H         1.061144        -2.236022         2.782745
 H         2.357976        -2.039181        -0.265868
