19
Iteration:  3038
 C         2.763236         1.189839        -0.254616
 C         1.719846         0.156052        -0.001343
 C         0.590261        -0.385655        -0.843937
 C         0.480955        -1.331200         0.331413
 C         0.614905         0.045803         1.297679
 O         1.114638        -0.013393         2.602192
 C         1.624144        -1.334291         2.730105
 O         2.512716        -1.653246         1.659845
 C         1.992198        -1.281382         0.350697
 H         3.382414         1.469243         0.671191
 H         3.447707         0.793987        -0.993660
 H         2.290805         2.135020        -0.529415
 H        -0.271959         0.262795        -1.043242
 H         0.921274        -0.879564        -1.766196
 H        -0.245304        -2.166734         0.462279
 H        -0.080736         0.825495         1.229300
 H         2.332989        -1.412788         3.600343
 H         0.803889        -2.180628         2.850688
 H         2.389341        -1.871356        -0.495909
