19
Iteration:  2720charge 0 multiplicity 1
 C         2.609721         1.327096        -0.172575
 C         1.747032         0.063966         0.043469
 C         0.691060        -0.359086        -0.912970
 C         0.408269        -1.234421         0.329227
 C         0.717909         0.113249         1.203652
 O         1.122091        -0.022846         2.543769
 C         1.772497        -1.401879         2.737914
 O         2.533253        -1.679315         1.687814
 C         1.850350        -1.460622         0.431653
 H         3.326152         1.727510         0.563961
 H         3.269530         1.255595        -1.031530
 H         2.077915         2.164893        -0.532282
 H        -0.212359         0.296951        -1.202178
 H         0.948272        -0.898503        -1.811367
 H        -0.500834        -1.894825         0.506349
 H        -0.045131         0.837813         1.124792
 H         2.364879        -1.427446         3.657184
 H         0.875885        -2.102310         2.793200
 H         2.287244        -2.290882        -0.199574
