19
Iteration:  3557charge 0 multiplicity 1
 C         2.702666         1.303270        -0.178740
 C         1.708379         0.144122        -0.006090
 C         0.576670        -0.412711        -0.887681
 C         0.398269        -1.232577         0.397310
 C         0.682583         0.145136         1.100624
 O         1.116503        -0.020149         2.516072
 C         1.706145        -1.341138         2.784621
 O         2.590253        -1.787452         1.705073
 C         1.943812        -1.409659         0.432471
 H         3.521271         1.294486         0.571702
 H         2.994249         1.203707        -1.279057
 H         2.089240         2.152176        -0.012124
 H        -0.201847         0.307088        -1.254369
 H         0.810234        -1.019627        -1.758942
 H        -0.279616        -2.037934         0.593500
 H        -0.040041         0.981966         1.146677
 H         2.277745        -1.189087         3.694521
 H         0.886533        -2.156577         2.978860
 H         2.450896        -1.958960        -0.433794
