19
Iteration:  4321charge 0 multiplicity 1
 C         2.898674         1.115932        -0.167478
 C         1.719050         0.097582         0.044028
 C         0.560165        -0.429042        -0.921951
 C         0.451525        -1.317458         0.341082
 C         0.564049         0.037037         1.186818
 O         1.002209         0.013233         2.546372
 C         1.560760        -1.197530         2.816712
 O         2.619883        -1.560480         1.659440
 C         2.042718        -1.390088         0.371158
 H         3.574829         1.153565         0.721763
 H         3.468512         0.597182        -1.028489
 H         2.592401         2.188763        -0.243576
 H        -0.390824         0.231017        -1.187926
 H         0.963732        -0.918822        -1.790466
 H        -0.419524        -2.026309         0.498647
 H        -0.232698         0.742424         1.078320
 H         2.039936        -1.088045         3.828678
 H         0.819944        -2.012985         2.653256
 H         2.501844        -2.085599        -0.371747
