19
Iteration:  4943
 C         2.670742         1.236896        -0.184511
 C         1.718927         0.160613         0.136416
 C         0.636552        -0.440930        -0.992179
 C         0.486498        -1.345899         0.288578
 C         0.665105         0.104558         1.150941
 O         1.205932         0.156950         2.512155
 C         1.672524        -1.270031         2.832672
 O         2.397527        -1.799768         1.736956
 C         2.000122        -1.462084         0.405865
 H         3.569949         1.377756         0.468670
 H         2.942169         1.268070        -1.239561
 H         2.112589         2.196230        -0.051606
 H        -0.303215         0.111435        -1.227139
 H         1.105341        -0.765916        -1.805405
 H        -0.191960        -2.253094         0.409823
 H        -0.202996         0.749937         1.013024
 H         2.389794        -1.340232         3.704686
 H         0.638097        -1.798601         2.941699
 H         2.516282        -2.042070        -0.354733
