19
Iteration:  1217
 C         2.786068         1.235715        -0.128457
 C         1.635190         0.073510        -0.048797
 C         0.429687        -0.500804        -0.951913
 C         0.300540        -1.270255         0.400375
 C         0.634591         0.062956         1.148858
 O         1.136864        -0.008838         2.594664
 C         1.743157        -1.288159         2.739843
 O         2.695654        -1.617904         1.646551
 C         2.040403        -1.343612         0.412008
 H         3.436890         1.207627         0.789441
 H         3.288314         1.385153        -1.122091
 H         2.268797         2.159067         0.028031
 H        -0.469164         0.210199        -0.997967
 H         0.784334        -0.924961        -1.893261
 H        -0.518339        -2.067453         0.531295
 H        -0.122972         0.803483         1.191139
 H         2.230078        -1.364967         3.776747
 H         0.907820        -2.061756         2.803239
 H         2.480789        -1.933952        -0.336927
