19
Iteration:   773
 C         2.813795         1.268406        -0.272713
 C         1.690760         0.170859         0.026339
 C         0.468257        -0.470414        -0.834904
 C         0.402180        -1.299354         0.349063
 C         0.580762         0.045228         1.247925
 O         1.168175         0.005717         2.570679
 C         1.762582        -1.237856         2.769133
 O         2.530438        -1.689992         1.671729
 C         1.955256        -1.387525         0.327572
 H         3.639299         1.298977         0.525113
 H         3.283386         0.956275        -1.180963
 H         2.409210         2.295805        -0.238125
 H        -0.366055         0.252490        -1.003754
 H         0.836716        -0.986864        -1.781307
 H        -0.244249        -2.231825         0.409186
 H        -0.279394         0.784650         1.229406
 H         2.392978        -1.383303         3.745574
 H         0.991704        -2.030273         2.903014
 H         2.509755        -2.060101        -0.340003
