19
Iteration:  1701
 C         2.682990         1.208274        -0.078242
 C         1.675098         0.110257         0.006252
 C         0.474337        -0.360515        -0.882700
 C         0.388715        -1.313483         0.390631
 C         0.610594         0.095027         1.178601
 O         1.229895         0.020079         2.476961
 C         1.724360        -1.310642         2.726086
 O         2.590059        -1.706059         1.653169
 C         1.998380        -1.366335         0.394246
 H         3.172967         1.466152         0.862630
 H         3.535717         0.961744        -0.704532
 H         2.234468         2.203407        -0.491626
 H        -0.319509         0.292568        -1.122692
 H         0.809212        -0.877345        -1.779242
 H        -0.290530        -2.275147         0.665228
 H        -0.225800         0.778014         1.108248
 H         2.319426        -1.292619         3.662052
 H         0.965615        -2.042184         2.748036
 H         2.465117        -1.972819        -0.356949
