19
Iteration:  4224
 C         2.735775         1.171085        -0.180693
 C         1.759535         0.069946         0.018628
 C         0.587340        -0.453523        -0.893685
 C         0.431455        -1.214602         0.391405
 C         0.693985         0.066319         1.135460
 O         1.048715         0.010789         2.485719
 C         1.629840        -1.288298         2.815716
 O         2.471147        -1.708881         1.711384
 C         2.110741        -1.293260         0.404065
 H         3.169986         1.353495         0.795977
 H         3.584565         0.830368        -0.893361
 H         2.235094         2.018336        -0.666609
 H        -0.293446         0.288716        -1.102205
 H         0.768773        -0.801973        -1.890672
 H        -0.306736        -2.068728         0.531147
 H        -0.153079         0.778884         1.088491
 H         2.344845        -1.155693         3.702433
 H         0.741325        -1.900207         2.822324
 H         2.641531        -1.850584        -0.335433
