19
Iteration:  3288
 C         2.729260         1.231062        -0.109244
 C         1.766609         0.161171         0.083917
 C         0.611250        -0.421270        -0.915880
 C         0.319802        -1.322243         0.356204
 C         0.628200         0.043395         1.176199
 O         1.135517        -0.026439         2.586612
 C         1.761146        -1.205509         2.737241
 O         2.554423        -1.675547         1.569517
 C         1.916385        -1.418894         0.387749
 H         3.308619         1.481426         0.842710
 H         3.408615         0.935030        -0.881631
 H         2.199911         2.091767        -0.452718
 H        -0.254046         0.287074        -1.001539
 H         0.940696        -0.771906        -1.873611
 H        -0.426990        -2.043518         0.623363
 H        -0.187902         0.823952         1.073874
 H         2.358955        -1.294410         3.644728
 H         0.948393        -2.004981         2.802828
 H         2.310992        -2.069701        -0.376871
