19
Iteration:  1506charge 0 multiplicity 1
 C         2.743014         1.268212        -0.226492
 C         1.629164         0.196446         0.040281
 C         0.552568        -0.368970        -0.868845
 C         0.380965        -1.267273         0.430830
 C         0.589252         0.006898         1.156395
 O         1.116030        -0.076990         2.565339
 C         1.807070        -1.257776         2.736495
 O         2.566582        -1.689044         1.626091
 C         1.946287        -1.406348         0.421366
 H         3.171673         1.594819         0.704070
 H         3.630843         0.742755        -0.643173
 H         2.640663         2.245597        -0.833737
 H        -0.416135         0.128900        -1.033157
 H         0.961914        -0.871666        -1.844438
 H        -0.209328        -2.156327         0.399879
 H        -0.200968         0.756659         1.267256
 H         2.501045        -1.063689         3.555218
 H         1.177563        -2.106667         2.905032
 H         2.471193        -2.052038        -0.324491
