19
Iteration:  2924
 C         2.668514         1.299848        -0.068212
 C         1.714650         0.077589         0.018435
 C         0.586776        -0.428093        -0.885699
 C         0.429970        -1.303095         0.349539
 C         0.641725         0.069654         1.156195
 O         1.214399         0.009790         2.473303
 C         1.713837        -1.251628         2.696746
 O         2.532415        -1.749287         1.663096
 C         1.907887        -1.386212         0.423983
 H         3.256477         1.356738         0.805849
 H         3.398048         1.277619        -0.925054
 H         2.139895         2.263567        -0.023889
 H        -0.135906         0.329628        -1.143346
 H         0.931206        -1.006766        -1.725448
 H        -0.244009        -2.116701         0.544059
 H        -0.139087         0.927252         1.228110
 H         2.119154        -1.227847         3.685859
 H         0.755896        -1.863329         2.808532
 H         2.448492        -2.033329        -0.240092
