19
Iteration:  4771charge 0 multiplicity 1
 C         2.654464         1.238775        -0.172397
 C         1.707368         0.136007         0.109810
 C         0.702485        -0.401717        -0.912176
 C         0.403321        -1.331947         0.406795
 C         0.605775         0.053976         1.128836
 O         1.220311         0.104859         2.423922
 C         1.617240        -1.197052         2.669623
 O         2.521464        -1.765902         1.780476
 C         2.015479        -1.482510         0.451398
 H         3.482388         1.191474         0.546387
 H         3.030986         1.366640        -1.168667
 H         2.033645         2.090459         0.093984
 H        -0.164510         0.189632        -1.236368
 H         1.088573        -0.900367        -1.836959
 H        -0.338057        -2.129680         0.519393
 H        -0.217211         0.732983         0.976162
 H         1.993635        -1.208186         3.663535
 H         0.716225        -1.887438         2.829397
 H         2.474784        -2.038908        -0.343236
