19
Iteration:  3479charge 0 multiplicity 1
 C         2.911000         1.153048        -0.183787
 C         1.684383         0.108956         0.095969
 C         0.502855        -0.410787        -0.904697
 C         0.387967        -1.297512         0.433959
 C         0.576324         0.028547         1.261205
 O         1.020458         0.000076         2.573173
 C         1.762122        -1.331900         2.652173
 O         2.611653        -1.579460         1.624151
 C         1.912046        -1.308985         0.326258
 H         3.309113         1.332478         0.785774
 H         3.693973         0.607524        -0.765830
 H         2.426394         2.058505        -0.577097
 H        -0.286040         0.332708        -0.991190
 H         0.899234        -0.835212        -1.863441
 H        -0.252429        -2.211661         0.589517
 H        -0.147934         0.900082         1.244123
 H         2.431997        -1.187415         3.501305
 H         0.996011        -2.099164         2.748045
 H         2.406672        -1.903668        -0.505660
