19
Iteration:   846
 C         2.736654         1.073584        -0.118641
 C         1.669121         0.121511         0.046508
 C         0.436415        -0.478903        -0.885219
 C         0.443092        -1.293944         0.370161
 C         0.670272         0.145345         1.192605
 O         1.108972         0.023910         2.546311
 C         1.757932        -1.270234         2.695129
 O         2.582510        -1.619863         1.612047
 C         1.970805        -1.297362         0.382049
 H         3.343027         1.135404         0.792900
 H         3.382348         0.745115        -0.991318
 H         2.314329         2.059781        -0.196671
 H        -0.304515         0.326293        -1.045072
 H         0.729820        -0.962080        -1.762051
 H        -0.021674        -2.184855         0.611572
 H        -0.179323         0.834229         1.155118
 H         2.414963        -1.258828         3.592459
 H         1.021028        -2.049472         2.961206
 H         2.459041        -2.087023        -0.352088
