19
Iteration:  2864
 C         2.711281         1.184418        -0.271669
 C         1.747965         0.222314         0.146095
 C         0.568487        -0.295093        -0.835910
 C         0.449597        -1.238117         0.344349
 C         0.559460        -0.010044         1.208920
 O         1.054122        -0.055105         2.530000
 C         1.690400        -1.312187         2.739463
 O         2.620138        -1.704855         1.692183
 C         1.992488        -1.382660         0.379942
 H         3.404003         1.595515         0.557870
 H         3.355434         0.626542        -0.962805
 H         2.333495         1.984534        -0.902738
 H        -0.199940         0.464410        -1.176200
 H         0.945786        -0.744480        -1.825060
 H        -0.373433        -1.928361         0.651960
 H        -0.267895         0.621452         1.107255
 H         2.283335        -1.306469         3.709912
 H         0.995046        -2.184576         2.668663
 H         2.534902        -1.976137        -0.416686
