19
Iteration:  4549
 C         2.849762         1.110168        -0.143349
 C         1.802417         0.029022         0.016626
 C         0.551017        -0.416043        -0.975008
 C         0.351719        -1.248109         0.403904
 C         0.556034         0.050706         1.163227
 O         0.980920        -0.034940         2.481999
 C         1.692022        -1.301448         2.739479
 O         2.665258        -1.454689         1.785636
 C         1.957466        -1.383250         0.416343
 H         3.561696         1.020854         0.626565
 H         3.349713         0.869740        -1.082059
 H         2.439321         2.082355        -0.236587
 H        -0.190712         0.344510        -1.343983
 H         0.842108        -0.951574        -1.826875
 H        -0.401771        -2.135737         0.593200
 H        -0.215163         0.818743         0.973132
 H         2.178407        -1.120498         3.759759
 H         0.935031        -2.068742         2.569680
 H         2.472175        -2.094750        -0.270073
