19
Iteration:  1056charge 0 multiplicity 1
 C         2.674498         1.217311        -0.202814
 C         1.643740         0.185565         0.012090
 C         0.532594        -0.398821        -0.870939
 C         0.451448        -1.352026         0.388471
 C         0.581623         0.128492         1.215342
 O         1.085392         0.041614         2.586369
 C         1.792996        -1.215805         2.735061
 O         2.572963        -1.863754         1.638827
 C         2.032284        -1.324450         0.353666
 H         3.289482         1.462468         0.743028
 H         3.302628         0.706704        -0.925959
 H         2.569626         2.165555        -0.711470
 H        -0.316207         0.287133        -0.786139
 H         0.627956        -0.778403        -1.868593
 H        -0.181223        -2.152721         0.445807
 H        -0.274448         0.855554         1.174703
 H         2.596437        -1.187149         3.534670
 H         1.141528        -2.012120         3.061104
 H         2.632465        -2.061194        -0.345763
