19
Iteration:  3564
 C         2.655361         1.274189        -0.198560
 C         1.720263         0.173094         0.000163
 C         0.562822        -0.459279        -0.867878
 C         0.425103        -1.215288         0.332224
 C         0.648418         0.136404         1.111702
 O         1.182744        -0.020290         2.531428
 C         1.690656        -1.324228         2.732099
 O         2.552946        -1.821586         1.736655
 C         1.978051        -1.377006         0.471251
 H         3.387654         1.131486         0.560798
 H         3.108782         1.486962        -1.135392
 H         2.243983         2.325354         0.009965
 H        -0.203693         0.284633        -1.055861
 H         0.821453        -1.067091        -1.833200
 H        -0.272137        -2.114700         0.421031
 H        -0.101382         1.012917         0.986605
 H         2.301152        -1.167408         3.651798
 H         0.918602        -2.044237         3.067691
 H         2.295998        -1.862970        -0.438506
