19
Iteration:   252
 C         2.712829         1.218831        -0.197221
 C         1.791211         0.078077        -0.048769
 C         0.605094        -0.354648        -0.923881
 C         0.320755        -1.137001         0.367109
 C         0.597693         0.037737         1.148736
 O         0.941782        -0.239284         2.554905
 C         2.054122        -0.968140         2.804250
 O         2.419791        -1.846030         1.685899
 C         1.957293        -1.397336         0.439226
 H         3.535940         1.344280         0.585056
 H         3.189702         1.027511        -1.176711
 H         2.118803         2.179623        -0.175341
 H        -0.062873         0.466784        -1.089538
 H         0.894420        -1.042835        -1.789122
 H        -0.443696        -1.864200         0.588573
 H        -0.154687         0.882755         1.278109
 H         3.000601        -0.399163         3.087745
 H         1.718298        -1.787475         3.567738
 H         2.372570        -2.171142        -0.309248
