19
Iteration:  4126
 C         2.670847         1.126068        -0.136001
 C         1.713593         0.089560         0.117043
 C         0.672531        -0.370769        -0.937924
 C         0.431901        -1.282029         0.264000
 C         0.632090         0.048645         1.152097
 O         1.080707         0.078888         2.501617
 C         1.700630        -1.227311         2.719481
 O         2.535098        -1.707677         1.745846
 C         1.986733        -1.430184         0.448208
 H         3.465377         1.099840         0.595441
 H         3.052523         0.984832        -1.183749
 H         2.162890         2.075843        -0.229790
 H        -0.252932         0.315478        -0.990788
 H         1.015271        -0.698521        -1.924890
 H        -0.273240        -2.130525         0.406270
 H        -0.052905         0.902838         0.990324
 H         2.316983        -0.980929         3.644133
 H         0.901460        -1.973170         3.024842
 H         2.546847        -1.967601        -0.316573
