19
Iteration:  1549
 C         2.634708         1.267338        -0.095923
 C         1.680563         0.151177         0.053635
 C         0.600516        -0.369626        -0.859159
 C         0.403166        -1.376894         0.375239
 C         0.605390        -0.029778         1.175438
 O         1.216915         0.060420         2.471761
 C         1.779940        -1.252830         2.734872
 O         2.569709        -1.705566         1.651142
 C         1.919697        -1.423973         0.388930
 H         3.257114         1.394142         0.750464
 H         3.166645         1.112291        -1.018612
 H         2.085806         2.260447        -0.246619
 H        -0.215921         0.323932        -1.071408
 H         1.050133        -0.680271        -1.884892
 H        -0.426965        -2.071455         0.619754
 H        -0.151129         0.755369         1.098159
 H         2.482052        -1.263141         3.567742
 H         0.880133        -1.955065         2.803321
 H         2.239623        -2.124755        -0.366768
