19
Iteration:  3154
 C         2.830030         1.076402        -0.175380
 C         1.700141         0.064346         0.052110
 C         0.541461        -0.362999        -0.886587
 C         0.377189        -1.247603         0.303094
 C         0.599399         0.050992         1.280437
 O         1.035536        -0.064812         2.618687
 C         1.742163        -1.308597         2.662944
 O         2.677769        -1.499341         1.616029
 C         1.856931        -1.346760         0.375522
 H         3.274367         1.044840         0.819592
 H         3.531321         0.603424        -0.954005
 H         2.270246         2.013603        -0.296036
 H        -0.083129         0.595248        -1.198100
 H         1.121770        -0.810016        -1.708853
 H        -0.468539        -1.961296         0.346714
 H        -0.184081         0.908504         1.246572
 H         2.363716        -1.266644         3.581371
 H         0.976921        -2.165031         2.806008
 H         2.450679        -2.024504        -0.249760
