19
Iteration:  3776charge 0 multiplicity 1
 C         2.712616         1.304460        -0.089113
 C         1.673477         0.148684        -0.023218
 C         0.574355        -0.425894        -0.994500
 C         0.475488        -1.348193         0.316457
 C         0.647035         0.086227         1.178758
 O         1.171313         0.059076         2.550794
 C         1.716628        -1.211928         2.842755
 O         2.494108        -1.836046         1.683920
 C         1.948997        -1.372269         0.337542
 H         3.562973         0.994048         0.596328
 H         3.027576         1.185110        -1.169348
 H         2.249108         2.285349        -0.090802
 H        -0.472875         0.088839        -1.075528
 H         0.990499        -0.975947        -1.798412
 H        -0.219278        -2.167148         0.573160
 H        -0.232776         0.855132         1.275974
 H         2.327148        -0.985602         3.776337
 H         0.891499        -1.987954         3.098290
 H         2.682575        -2.017826        -0.274611
