19
Iteration:  3404
 C         2.662248         1.272935        -0.178721
 C         1.655549         0.171855         0.038369
 C         0.614400        -0.358603        -0.903778
 C         0.494361        -1.327062         0.382171
 C         0.643592         0.100768         1.192348
 O         1.223853         0.059004         2.527882
 C         1.724720        -1.270377         2.722973
 O         2.424105        -1.835948         1.664085
 C         1.987733        -1.386786         0.381399
 H         3.338464         1.088518         0.659679
 H         3.043663         1.229997        -1.258848
 H         2.100030         2.208656        -0.058618
 H        -0.209200         0.336828        -1.125049
 H         1.131634        -0.905723        -1.660411
 H        -0.082155        -2.217608         0.745387
 H        -0.251340         0.645536         1.376164
 H         2.319855        -1.369971         3.647713
 H         0.814708        -1.989337         2.888577
 H         2.472763        -2.011196        -0.412061
