19
Iteration:   790
 C         2.631615         1.112032        -0.236384
 C         1.657105         0.106414         0.098232
 C         0.664978        -0.289278        -0.925147
 C         0.399520        -1.263577         0.457288
 C         0.625110         0.029849         1.206442
 O         1.127572        -0.003685         2.489036
 C         1.774236        -1.276670         2.765784
 O         2.577410        -1.670662         1.615575
 C         1.909211        -1.374352         0.446163
 H         3.449235         1.009133         0.439423
 H         3.040792         1.011013        -1.308283
 H         2.215940         2.119176        -0.221607
 H        -0.220140         0.323076        -1.139360
 H         0.997038        -0.818192        -1.776447
 H        -0.365555        -1.950813         0.715767
 H        -0.162965         0.765963         1.171789
 H         2.556034        -1.048292         3.425792
 H         1.126653        -2.147242         3.037606
 H         2.576030        -1.990243        -0.272012
