19
Iteration:  3837charge 0 multiplicity 1
 C         2.795136         1.027836        -0.150717
 C         1.705616         0.104853        -0.020616
 C         0.624777        -0.414050        -0.888650
 C         0.265017        -1.193878         0.351383
 C         0.564441         0.047740         1.262800
 O         1.011484        -0.069704         2.571486
 C         1.776981        -1.341255         2.695752
 O         2.632887        -1.458057         1.679128
 C         1.991955        -1.328889         0.388166
 H         3.353931         1.403380         0.681443
 H         3.523588         0.582464        -0.831039
 H         2.557720         2.006238        -0.693527
 H        -0.121002         0.248764        -1.270485
 H         0.877882        -1.038192        -1.803054
 H        -0.523958        -1.973368         0.555429
 H        -0.140623         0.872117         1.204656
 H         2.314420        -1.429454         3.669219
 H         1.091761        -2.182674         2.737647
 H         2.500898        -1.849686        -0.418693
