19
Iteration:  2390
 C         2.677431         1.279870        -0.138260
 C         1.669341         0.176498         0.055043
 C         0.515066        -0.408058        -0.878911
 C         0.468539        -1.339167         0.281509
 C         0.683585         0.031106         1.193106
 O         1.168520         0.053405         2.501382
 C         1.733878        -1.273476         2.723386
 O         2.471279        -1.816645         1.697821
 C         2.035703        -1.332719         0.411065
 H         3.348522         0.953637         0.695834
 H         3.137871         1.300163        -1.209127
 H         2.208786         2.311489         0.040459
 H        -0.304720         0.330367        -0.818494
 H         0.735229        -0.652009        -1.877463
 H        -0.312216        -2.226656         0.426831
 H        -0.117453         0.791146         0.919344
 H         2.521945        -1.227151         3.591716
 H         0.995870        -2.012166         3.163340
 H         2.582879        -1.952301        -0.389872
