19
Iteration:  1332charge 0 multiplicity 1
 C         2.721193         1.133003        -0.182227
 C         1.604760         0.205646         0.108066
 C         0.469992        -0.377502        -0.932252
 C         0.390174        -1.351417         0.390185
 C         0.619850        -0.012844         1.218059
 O         1.192463        -0.059387         2.525488
 C         1.721597        -1.251230         2.723711
 O         2.604940        -1.548490         1.657786
 C         1.989953        -1.322672         0.390507
 H         3.305029         1.308238         0.691199
 H         3.303482         0.575475        -0.918146
 H         2.595346         2.134043        -0.695618
 H        -0.177232         0.430112        -1.185200
 H         0.964062        -0.927760        -1.754865
 H        -0.098654        -2.270369         0.365161
 H        -0.324483         0.582540         1.329387
 H         2.348532        -1.392133         3.588362
 H         0.899857        -2.069756         2.943955
 H         2.649042        -1.896494        -0.392349
