19
Iteration:   878
 C         2.739540         1.164368        -0.192818
 C         1.675032         0.159741         0.102527
 C         0.546991        -0.350741        -0.887683
 C         0.383599        -1.294984         0.401163
 C         0.538988         0.010803         1.206602
 O         1.198987         0.006620         2.462851
 C         1.766894        -1.335927         2.689027
 O         2.626021        -1.578542         1.651977
 C         1.913765        -1.408213         0.484423
 H         3.296720         1.399412         0.684544
 H         3.448783         0.645784        -0.916760
 H         2.309137         1.995695        -0.701739
 H        -0.159723         0.472764        -1.132762
 H         0.830451        -0.813852        -1.786921
 H        -0.163681        -2.196762         0.616197
 H        -0.395427         0.551355         1.220883
 H         2.251888        -1.081159         3.597535
 H         0.896353        -1.962409         2.744874
 H         2.148768        -2.178959        -0.306490
