19
Iteration:   463
 C         2.714197         1.139030        -0.013584
 C         1.627692         0.110697         0.008120
 C         0.520836        -0.534567        -0.887638
 C         0.384717        -1.249756         0.531500
 C         0.641491         0.119706         1.124101
 O         1.179926         0.027871         2.520270
 C         1.764867        -1.249461         2.658268
 O         2.617166        -1.555860         1.559762
 C         1.920236        -1.442070         0.348183
 H         3.165433         0.938462         0.949030
 H         3.541002         0.880981        -0.711273
 H         2.489538         2.208335         0.080417
 H        -0.242814         0.172955        -1.274082
 H         0.871621        -1.170396        -1.691586
 H        -0.322484        -2.036716         0.779590
 H        -0.162319         0.923735         1.151764
 H         2.202202        -1.235829         3.625257
 H         0.928438        -1.933048         2.522157
 H         2.325867        -2.000680        -0.450957
