19
Iteration:  4420charge 0 multiplicity 1
 C         2.685257         1.217249        -0.165129
 C         1.737414         0.089249         0.033181
 C         0.706163        -0.523437        -0.942348
 C         0.375928        -1.258795         0.329038
 C         0.507285         0.102796         1.137038
 O         1.230078         0.078379         2.448535
 C         1.581791        -1.270214         2.711624
 O         2.517174        -1.754490         1.784106
 C         2.063483        -1.345363         0.513130
 H         3.149414         1.466426         0.826003
 H         3.452907         1.230180        -1.074533
 H         1.909964         2.045877        -0.285181
 H        -0.046282         0.367286        -1.183826
 H         1.053989        -1.055949        -1.841530
 H        -0.355947        -2.097312         0.492479
 H        -0.177850         0.940032         1.033297
 H         2.209127        -1.289807         3.667600
 H         0.762659        -1.892768         3.033414
 H         2.637192        -2.019948        -0.293616
