19
Iteration:  3379charge 0 multiplicity 1
 C         2.741010         1.269361        -0.205157
 C         1.695521         0.120828         0.084691
 C         0.595810        -0.364132        -0.874721
 C         0.257433        -1.217044         0.279237
 C         0.625796         0.057282         1.199635
 O         1.174543        -0.055645         2.465918
 C         1.708632        -1.343358         2.760244
 O         2.622114        -1.666999         1.746083
 C         1.993171        -1.407573         0.387165
 H         3.461835         1.158370         0.538348
 H         3.022962         1.054063        -1.213490
 H         2.194460         2.253105        -0.242288
 H        -0.180657         0.340243        -0.978587
 H         0.851452        -0.995579        -1.770743
 H        -0.490863        -1.973748         0.630403
 H        -0.126181         0.916836         1.333750
 H         2.198003        -1.332261         3.761754
 H         0.929424        -2.113781         2.849574
 H         2.426501        -2.112426        -0.380497
