19
Iteration:  4606
 C         2.626100         1.348502        -0.154060
 C         1.804982         0.062872         0.039969
 C         0.667466        -0.515827        -0.916280
 C         0.357276        -1.265322         0.303374
 C         0.655460         0.068732         1.059177
 O         1.180795         0.023937         2.449898
 C         1.669759        -1.169808         2.809075
 O         2.483541        -1.805616         1.732599
 C         1.990561        -1.379406         0.538557
 H         3.326464         1.382420         0.668150
 H         3.261396         1.135243        -1.011663
 H         2.093336         2.281998        -0.199690
 H        -0.187466         0.102897        -1.163377
 H         1.058570        -1.100062        -1.704656
 H        -0.620172        -1.774730         0.168666
 H        -0.132147         0.792633         1.132183
 H         2.280886        -1.099164         3.721392
 H         0.896407        -1.969862         3.060321
 H         2.572218        -2.029106        -0.255310
