19
Iteration:  1618
 C         2.805239         1.153999        -0.304932
 C         1.720989         0.117679         0.107849
 C         0.556090        -0.310040        -0.807950
 C         0.366157        -1.332171         0.313091
 C         0.513104        -0.058652         1.297655
 O         1.030748         0.013011         2.602906
 C         1.755616        -1.267863         2.726287
 O         2.663880        -1.627535         1.616865
 C         2.001475        -1.322702         0.373581
 H         3.623431         1.006123         0.427376
 H         3.027481         0.798862        -1.372251
 H         2.475870         2.161208        -0.313642
 H        -0.391621         0.356568        -0.795709
 H         0.803193        -0.520037        -1.883197
 H        -0.252516        -2.144697         0.365075
 H        -0.443468         0.504803         1.142195
 H         2.301350        -1.206728         3.698036
 H         0.934094        -1.993135         2.684311
 H         2.621614        -1.874331        -0.434924
