19
Iteration:   235charge 0 multiplicity 1
 C         2.751899         1.171332        -0.250521
 C         1.707979         0.153587         0.059367
 C         0.613231        -0.375583        -0.980086
 C         0.453379        -1.231867         0.346455
 C         0.656124         0.111919         1.224459
 O         0.841486        -0.256769         2.594934
 C         2.159499        -0.984415         2.768503
 O         2.319280        -1.842417         1.720787
 C         1.891378        -1.392181         0.388436
 H         3.411283         1.120709         0.602204
 H         3.328239         1.261250        -1.173668
 H         2.289638         2.134247        -0.041896
 H        -0.172678         0.378843        -1.242153
 H         1.016300        -0.837031        -1.891472
 H        -0.298865        -2.120944         0.472917
 H        -0.091968         0.905194         1.184396
 H         2.951855        -0.235807         2.544518
 H         2.211358        -1.514278         3.672749
 H         2.393834        -1.941179        -0.358222
