19
Iteration:  1885
 C         2.723204         1.450194        -0.069928
 C         1.714655         0.079298         0.053510
 C         0.545642        -0.439272        -0.946785
 C         0.327727        -1.274316         0.418079
 C         0.707358         0.018422         1.147378
 O         1.132882        -0.032085         2.476572
 C         1.842316        -1.207618         2.744743
 O         2.519948        -1.819459         1.648056
 C         1.880927        -1.436797         0.383822
 H         3.348145         1.630861         0.766263
 H         3.438263         1.299007        -0.831932
 H         2.078530         2.349206        -0.271169
 H        -0.111080         0.408427        -1.061296
 H         0.871379        -1.023147        -1.859739
 H        -0.456661        -1.974163         0.559004
 H        -0.118912         0.688037         1.236897
 H         2.595497        -0.950099         3.483462
 H         1.119262        -1.973162         3.063960
 H         2.322518        -2.102371        -0.358643
