19
Iteration:  3153charge 0 multiplicity 1
 C         2.830533         1.076805        -0.174684
 C         1.692121         0.073716         0.050678
 C         0.534643        -0.359644        -0.881681
 C         0.367953        -1.250457         0.296706
 C         0.595794         0.055334         1.271777
 O         1.039172        -0.059867         2.614051
 C         1.735969        -1.307583         2.672097
 O         2.687109        -1.508657         1.612882
 C         1.870995        -1.349584         0.380504
 H         3.246266         1.009993         0.816194
 H         3.550196         0.607136        -0.949486
 H         2.294087         2.075064        -0.299651
 H        -0.080433         0.588446        -1.176172
 H         1.135582        -0.832112        -1.711175
 H        -0.464767        -1.973468         0.360438
 H        -0.169344         0.865323         1.273576
 H         2.346871        -1.264478         3.594893
 H         0.951117        -2.189245         2.825622
 H         2.467776        -2.031752        -0.255993
