19
Iteration:   892charge 0 multiplicity 1
 C         2.667405         1.149993        -0.219895
 C         1.680805         0.075445         0.031440
 C         0.596223        -0.415828        -0.904687
 C         0.362874        -1.228314         0.395263
 C         0.650401         0.114264         1.211830
 O         1.130878        -0.074813         2.540038
 C         1.774420        -1.289891         2.761057
 O         2.588017        -1.614573         1.652028
 C         1.918768        -1.352409         0.399128
 H         3.105368         1.583010         0.743094
 H         3.487641         0.858156        -0.861332
 H         2.129587         2.032781        -0.643314
 H        -0.288870         0.182895        -1.083270
 H         0.909476        -0.999956        -1.775901
 H        -0.408914        -1.927967         0.475062
 H         0.043607         1.063423         1.224395
 H         2.467478        -1.339613         3.659870
 H         1.108345        -2.131087         2.967804
 H         2.568113        -1.914694        -0.374631
