19
Iteration:  2624
 C         2.792662         1.227276        -0.080740
 C         1.754384         0.148193         0.044804
 C         0.577224        -0.394894        -0.864491
 C         0.310701        -1.250142         0.436320
 C         0.671029         0.050944         1.086391
 O         1.000561        -0.108107         2.484633
 C         1.762771        -1.217050         2.766516
 O         2.659049        -1.677390         1.602507
 C         1.868111        -1.410524         0.347435
 H         3.471672         1.299788         0.897818
 H         3.393059         1.346475        -0.952151
 H         2.182756         2.156079        -0.091243
 H        -0.239935         0.193762        -1.201869
 H         0.879032        -1.055644        -1.680233
 H        -0.547786        -1.923179         0.583934
 H        -0.050255         0.940813         1.372366
 H         2.461695        -0.910692         3.583691
 H         1.217484        -2.118397         3.080171
 H         2.270541        -2.194527        -0.335176
