19
Iteration:  2940
 C         2.680968         1.189479        -0.044413
 C         1.690256         0.183518         0.152647
 C         0.571400        -0.341569        -0.923753
 C         0.369045        -1.268760         0.353893
 C         0.563950         0.015725         1.139856
 O         1.169750         0.049624         2.401007
 C         1.687425        -1.234403         2.746898
 O         2.618022        -1.762402         1.689255
 C         2.026583        -1.456293         0.398855
 H         3.570539         1.225197         0.703255
 H         3.124538         0.938778        -1.013341
 H         2.218707         2.188335        -0.126593
 H        -0.349462         0.299706        -1.036273
 H         0.962958        -0.755683        -1.893928
 H        -0.455334        -2.055802         0.434958
 H        -0.234355         0.672764         1.065864
 H         2.424520        -1.077071         3.569652
 H         1.048620        -2.041404         2.947629
 H         2.447883        -2.026894        -0.489067
