19
Iteration:  3285charge 0 multiplicity 1
 C         2.752998         1.287888        -0.095983
 C         1.771931         0.141489         0.073708
 C         0.609741        -0.458082        -0.914327
 C         0.340116        -1.305794         0.375332
 C         0.616510         0.067568         1.162123
 O         1.144276        -0.031342         2.591096
 C         1.758776        -1.220585         2.737737
 O         2.542313        -1.675669         1.580645
 C         1.898595        -1.434275         0.368672
 H         3.264404         1.469605         0.895768
 H         3.399273         0.979069        -0.993949
 H         2.126234         2.111489        -0.477646
 H        -0.237124         0.340135        -1.012371
 H         0.926170        -0.763669        -1.916258
 H        -0.437585        -2.053789         0.611294
 H        -0.183705         0.776938         1.049556
 H         2.359713        -1.331981         3.639212
 H         1.011181        -1.970609         2.845920
 H         2.241033        -2.167745        -0.381861
