19
Iteration:  4031
 C         2.759412         1.090862        -0.216428
 C         1.718219         0.152239         0.082528
 C         0.627486        -0.322130        -0.962641
 C         0.383537        -1.307291         0.337013
 C         0.630316        -0.002738         1.232482
 O         1.005326        -0.113890         2.551995
 C         1.682031        -1.240481         2.779036
 O         2.612222        -1.539044         1.681324
 C         1.978105        -1.335622         0.400608
 H         3.242832         1.351451         0.716486
 H         3.554182         0.554178        -0.780536
 H         2.484943         1.979545        -0.840227
 H        -0.162758         0.277432        -1.255864
 H         1.000860        -0.948312        -1.851107
 H        -0.562021        -1.918854         0.538773
 H        -0.110530         0.844154         1.186102
 H         2.361565        -1.107299         3.707663
 H         0.946913        -2.035583         2.964506
 H         2.446809        -1.948872        -0.452220
