19
Iteration:  1572
 C         2.673711         1.319242        -0.092574
 C         1.726961         0.101819        -0.019220
 C         0.510412        -0.559826        -0.894311
 C         0.350614        -1.164925         0.465048
 C         0.647449         0.154293         1.159743
 O         1.103198        -0.078638         2.532577
 C         1.756628        -1.276674         2.656078
 O         2.623975        -1.707583         1.627571
 C         2.038804        -1.413228         0.439764
 H         3.341109         1.243399         0.740514
 H         3.138617         1.549219        -1.065951
 H         2.011093         2.188705         0.165943
 H        -0.214210         0.193835        -1.263843
 H         0.718566        -1.317707        -1.744936
 H        -0.493126        -1.825179         0.541007
 H         0.097800         1.093292         1.053202
 H         2.454768        -1.202531         3.524397
 H         0.990919        -2.098057         2.727739
 H         2.305208        -2.161218        -0.320979
