19
Iteration:  3876charge 0 multiplicity 1
 C         2.781534         1.186313        -0.249166
 C         1.690553         0.090678         0.094322
 C         0.540119        -0.369601        -0.867623
 C         0.407406        -1.241155         0.412127
 C         0.595689         0.056690         1.184249
 O         1.007652         0.006333         2.525465
 C         1.702410        -1.310137         2.723946
 O         2.629437        -1.677442         1.673982
 C         2.051072        -1.392057         0.394100
 H         3.136080         1.485317         0.743500
 H         3.606996         0.719741        -0.834763
 H         2.281195         2.013029        -0.698042
 H        -0.152662         0.491179        -1.012267
 H         0.765005        -0.927357        -1.782382
 H        -0.267354        -2.070179         0.388334
 H        -0.138984         0.868664         1.150298
 H         2.238562        -1.291339         3.661609
 H         0.774218        -1.910993         2.676864
 H         2.772579        -1.873620        -0.290883
