19
Iteration:  1335
 C         2.738362         1.135048        -0.173760
 C         1.598590         0.228821         0.129464
 C         0.454007        -0.402006        -0.901593
 C         0.412240        -1.352390         0.414285
 C         0.637736        -0.020815         1.187984
 O         1.195693        -0.068442         2.501890
 C         1.710442        -1.264623         2.712340
 O         2.582001        -1.544370         1.653489
 C         1.995821        -1.300238         0.381669
 H         3.317391         1.271757         0.736679
 H         3.305220         0.606731        -1.011377
 H         2.574258         2.088023        -0.598356
 H        -0.196774         0.453797        -1.287164
 H         0.920921        -0.977012        -1.671946
 H        -0.151665        -2.293008         0.248853
 H        -0.303748         0.583795         1.354862
 H         2.414375        -1.295510         3.613597
 H         0.912818        -1.968427         2.951717
 H         2.631370        -1.927602        -0.331405
