19
Iteration:  2440charge 0 multiplicity 1
 C         2.651984         1.189318        -0.024536
 C         1.676421         0.057854         0.037922
 C         0.516006        -0.402906        -1.016036
 C         0.274521        -1.206667         0.314552
 C         0.659355         0.156638         1.186025
 O         1.206425        -0.084813         2.492422
 C         1.785428        -1.315448         2.765489
 O         2.676190        -1.622245         1.701047
 C         1.891379        -1.389247         0.428035
 H         3.265832         1.174687         0.933077
 H         3.411729         1.105589        -0.812811
 H         2.011283         2.034617        -0.287329
 H        -0.148936         0.356327        -1.456934
 H         0.990983        -1.049106        -1.916657
 H        -0.323256        -2.023564         0.480004
 H        -0.009956         1.012385         1.087089
 H         2.306503        -1.292691         3.697312
 H         1.055224        -2.125275         2.820341
 H         2.296847        -1.937869        -0.440922
