19
Iteration:  4955charge 0 multiplicity 1
 C         2.653793         1.295581        -0.206697
 C         1.751797         0.098143         0.040447
 C         0.692760        -0.427376        -0.870761
 C         0.479258        -1.317694         0.346630
 C         0.660932         0.075512         1.173698
 O         1.165196         0.044208         2.437415
 C         1.654498        -1.180883         2.702570
 O         2.413302        -1.840528         1.742603
 C         1.976208        -1.379076         0.483804
 H         3.544529         1.128532         0.465193
 H         3.058243         1.223473        -1.228427
 H         2.151367         2.262078        -0.005468
 H        -0.107988         0.319353        -1.053622
 H         0.944426        -0.932076        -1.682928
 H        -0.292389        -2.132482         0.457733
 H        -0.095416         0.857876         1.175950
 H         2.235148        -1.063706         3.635779
 H         0.761123        -1.896314         2.980084
 H         2.549479        -1.984444        -0.168315
