19
Iteration:   906
 C         2.670108         1.283035        -0.256998
 C         1.722791         0.118215        -0.007977
 C         0.523482        -0.474355        -0.912878
 C         0.254002        -1.165898         0.397872
 C         0.728085         0.095605         1.169743
 O         1.033406        -0.049040         2.678373
 C         1.786121        -1.286526         2.775661
 O         2.614712        -1.714562         1.621839
 C         2.078021        -1.429554         0.385476
 H         3.085548         1.493935         0.767997
 H         3.494685         1.034323        -0.919690
 H         2.206546         2.211761        -0.753611
 H        -0.032915         0.338002        -1.392691
 H         1.014651        -1.176117        -1.742741
 H        -0.666070        -1.812264         0.779844
 H        -0.128977         0.833499         1.213899
 H         2.513054        -1.053720         3.577528
 H         1.044656        -2.157552         2.898023
 H         2.382936        -2.166664        -0.344946
