19
Iteration:  3733charge 0 multiplicity 1
 C         2.622895         1.303687        -0.146238
 C         1.752478         0.102684         0.066056
 C         0.631349        -0.469488        -0.951253
 C         0.353414        -1.219315         0.411923
 C         0.699651         0.098387         1.159191
 O         1.168783         0.042901         2.499484
 C         1.678725        -1.382473         2.737331
 O         2.586201        -1.700988         1.701202
 C         1.953110        -1.457636         0.433194
 H         3.392630         1.423051         0.675289
 H         3.072330         1.224371        -1.163638
 H         1.872684         2.031965        -0.141108
 H        -0.133258         0.374474        -1.225406
 H         1.005511        -1.012869        -1.818609
 H        -0.400447        -2.010633         0.542120
 H         0.040554         0.994577         0.948489
 H         2.234442        -1.250826         3.687580
 H         0.726095        -1.838095         2.737226
 H         2.253178        -2.103414        -0.476795
