19
Iteration:  4631
 C         2.653903         1.230525        -0.196787
 C         1.774601         0.046291         0.012688
 C         0.723917        -0.404461        -1.029949
 C         0.424214        -1.283756         0.470836
 C         0.659328         0.126239         1.165080
 O         1.141003         0.055642         2.523325
 C         1.607520        -1.233381         2.710416
 O         2.536120        -1.683812         1.715308
 C         1.930700        -1.493848         0.464315
 H         2.981798         1.475728         0.889086
 H         3.538514         1.184521        -0.886013
 H         1.857147         2.040142        -0.409986
 H        -0.076744         0.250381        -1.303265
 H         1.182265        -0.999984        -1.925748
 H        -0.438745        -1.876563         0.535531
 H        -0.342984         0.566672         1.248451
 H         2.136697        -1.141861         3.609227
 H         0.919778        -2.027519         3.014305
 H         2.558067        -2.253973        -0.255087
