19
Iteration:  1118
 C         2.684822         1.285135        -0.186654
 C         1.735964         0.104812         0.025858
 C         0.571431        -0.431873        -0.877365
 C         0.343971        -1.238315         0.483926
 C         0.642488         0.085802         1.244351
 O         1.134287        -0.049012         2.522423
 C         1.763169        -1.285420         2.644945
 O         2.642737        -1.666178         1.667526
 C         1.941727        -1.413381         0.365146
 H         3.241600         1.642699         0.695253
 H         3.346309         0.917453        -1.022768
 H         2.070408         2.050781        -0.632706
 H        -0.401309         0.072333        -1.241585
 H         0.957131        -1.143374        -1.616006
 H        -0.611521        -1.873379         0.653986
 H        -0.151078         0.805140         1.270683
 H         2.256506        -1.214875         3.669057
 H         0.877719        -1.990500         2.687882
 H         2.223996        -2.087251        -0.409091
