19
Iteration:  2513charge 0 multiplicity 1
 C         2.755696         1.184421        -0.341292
 C         1.700851         0.127519         0.041505
 C         0.618365        -0.309343        -0.958682
 C         0.316212        -1.187298         0.350118
 C         0.610988         0.069538         1.269291
 O         1.089589        -0.192667         2.554424
 C         1.735596        -1.422730         2.808044
 O         2.669144        -1.516976         1.710615
 C         1.881496        -1.332756         0.447177
 H         3.257457         1.495000         0.640454
 H         3.604750         0.789656        -0.880575
 H         2.255685         2.003010        -0.794777
 H        -0.172226         0.355287        -1.337119
 H         1.015026        -0.792889        -1.779177
 H        -0.333899        -2.088351         0.593982
 H        -0.103007         0.832419         1.236316
 H         2.256464        -1.376641         3.719260
 H         0.997700        -2.285962         2.709516
 H         2.089175        -2.109724        -0.243608
