19
Iteration:  2235
 C         2.593986         1.315473        -0.056831
 C         1.734357         0.074723        -0.049583
 C         0.629598        -0.413903        -0.941732
 C         0.374703        -1.200689         0.330515
 C         0.655365         0.107614         1.158707
 O         1.161423        -0.047925         2.497568
 C         1.798490        -1.270467         2.788562
 O         2.545136        -1.734801         1.638916
 C         1.915275        -1.463956         0.431214
 H         3.241790         1.136515         0.765699
 H         3.238743         1.344247        -0.880606
 H         1.919343         2.155454         0.134542
 H        -0.147499         0.230503        -1.054777
 H         0.889530        -0.961993        -1.855882
 H        -0.405563        -1.905900         0.480977
 H        -0.018231         0.960673         1.233709
 H         2.481367        -1.005116         3.575181
 H         1.097922        -2.015337         3.245623
 H         2.413974        -2.188869        -0.272138
