19
Iteration:   559charge 0 multiplicity 1
 C         2.664440         1.181335        -0.369292
 C         1.743769         0.134157         0.032113
 C         0.569759        -0.337435        -0.889925
 C         0.385567        -1.172174         0.369740
 C         0.559197         0.105492         1.195846
 O         1.086248        -0.107832         2.567444
 C         1.800627        -1.304636         2.814329
 O         2.631472        -1.732133         1.712769
 C         1.971398        -1.371117         0.436382
 H         3.249200         1.499364         0.554666
 H         3.409844         0.956237        -1.148879
 H         2.060719         2.108871        -0.589283
 H        -0.079676         0.443415        -1.276258
 H         0.820396        -0.971700        -1.794157
 H        -0.314357        -1.930718         0.655640
 H        -0.390720         0.697015         1.191445
 H         2.410442        -1.077821         3.689149
 H         1.024812        -2.041533         3.084162
 H         2.427177        -2.059032        -0.421758
