19
Iteration:    17
 C         2.703343         1.183210        -0.170614
 C         1.678760         0.151353         0.101489
 C         0.594696        -0.235055        -0.873969
 C         0.411513        -1.330771         0.347625
 C         0.631713        -0.010526         1.178464
 O         0.950751        -0.044328         2.478629
 C         2.008886        -1.000263         2.796518
 O         2.465444        -1.848700         1.676322
 C         1.912286        -1.503105         0.346193
 H         3.454315         1.340996         0.641235
 H         3.308025         0.748063        -0.995611
 H         2.348658         2.197173        -0.481722
 H        -0.218468         0.504357        -1.010012
 H         1.013580        -0.598747        -1.837253
 H        -0.357724        -2.143903         0.544283
 H        -0.215671         0.705606         1.092759
 H         2.959545        -0.604000         3.190746
 H         1.769818        -1.770527         3.576213
 H         2.405361        -2.141666        -0.414227
