19
Iteration:  4765
 C         2.641749         1.243481        -0.135922
 C         1.686402         0.154815         0.089922
 C         0.698896        -0.456063        -0.861303
 C         0.436828        -1.329405         0.391626
 C         0.637161         0.063526         1.152587
 O         1.178081         0.135160         2.393339
 C         1.626574        -1.237313         2.738387
 O         2.492432        -1.750373         1.736787
 C         1.987134        -1.514772         0.400810
 H         3.541682         1.226188         0.505227
 H         2.995258         1.243156        -1.206781
 H         2.307333         2.324836         0.056815
 H        -0.061501         0.302462        -1.207603
 H         1.099819        -1.007158        -1.711928
 H        -0.306084        -2.124888         0.541240
 H        -0.177845         0.846666         1.040874
 H         2.173044        -1.150020         3.730229
 H         0.746709        -1.876652         2.629820
 H         2.810611        -2.017952        -0.278020
