19
Iteration:   414charge 0 multiplicity 1
 C         2.701498         1.152168        -0.339287
 C         1.711472         0.129282         0.077689
 C         0.607799        -0.300856        -0.866344
 C         0.429987        -1.334669         0.380865
 C         0.655020         0.040653         1.231159
 O         1.045006         0.019827         2.595844
 C         1.772158        -1.265619         2.785429
 O         2.554558        -1.720439         1.639328
 C         1.953549        -1.384327         0.392254
 H         3.658471         1.327257         0.216493
 H         2.952136         0.999284        -1.396528
 H         2.163161         2.092914        -0.185330
 H        -0.260650         0.354562        -1.044150
 H         1.052973        -0.689175        -1.820268
 H        -0.299210        -2.160507         0.561878
 H        -0.168573         0.740106         1.262357
 H         2.432205        -0.847762         3.563577
 H         0.980683        -1.984812         3.114682
 H         2.352935        -2.048578        -0.477780
