19
Iteration:  4694
 C         2.858458         1.024521        -0.227019
 C         1.748365         0.063973         0.052533
 C         0.617826        -0.360247        -0.911325
 C         0.384528        -1.318887         0.390408
 C         0.583049         0.070419         1.264088
 O         0.898807        -0.024275         2.566090
 C         1.716048        -1.273420         2.729881
 O         2.633133        -1.454631         1.692467
 C         1.946832        -1.374651         0.359997
 H         3.418257         1.318732         0.654100
 H         3.563408         0.509710        -0.857537
 H         2.586752         1.969356        -0.627930
 H        -0.057935         0.357966        -1.282572
 H         1.036127        -0.979236        -1.703544
 H        -0.379992        -2.131499         0.409989
 H        -0.302739         0.641706         1.073655
 H         2.388201        -1.027192         3.499870
 H         0.959768        -2.064788         2.791245
 H         2.444221        -1.888795        -0.495377
