19
Iteration:  2471charge 0 multiplicity 1
 C         2.854930         1.145894        -0.225591
 C         1.735534         0.217381         0.070249
 C         0.515721        -0.329059        -0.763581
 C         0.454790        -1.378937         0.447164
 C         0.569918         0.012038         1.246659
 O         0.978434        -0.062473         2.562906
 C         1.742475        -1.265562         2.661937
 O         2.583839        -1.616410         1.586466
 C         1.920444        -1.373283         0.330038
 H         3.455445         1.566345         0.677214
 H         3.652796         0.747569        -0.797550
 H         2.672979         2.078899        -0.688653
 H        -0.225150         0.455082        -1.015576
 H         0.917535        -0.720287        -1.751651
 H        -0.065202        -2.320491         0.523765
 H        -0.222784         0.722801         1.172777
 H         2.370091        -1.068895         3.467077
 H         0.976768        -2.097911         2.804431
 H         2.372491        -1.827485        -0.487466
