19
Iteration:  1294
 C         2.649037         1.331402        -0.251132
 C         1.742964         0.045037         0.066916
 C         0.598254        -0.408043        -0.842155
 C         0.325664        -1.212196         0.450026
 C         0.707163         0.069927         1.206230
 O         1.012501        -0.147515         2.521659
 C         1.782635        -1.267491         2.725553
 O         2.633252        -1.625092         1.604923
 C         1.937743        -1.441614         0.395489
 H         3.105652         1.846512         0.670353
 H         3.491608         0.774859        -0.753805
 H         2.254377         2.032165        -0.965496
 H        -0.108536         0.419935        -1.195629
 H         0.824426        -0.987810        -1.736676
 H        -0.371252        -1.976866         1.046180
 H         0.062212         0.952921         1.223286
 H         2.381270        -0.964736         3.649412
 H         1.118319        -2.124476         2.862795
 H         2.421785        -2.004368        -0.344237
