19
Iteration:  2602
 C         2.651015         1.223072        -0.018410
 C         1.735043         0.087888         0.087148
 C         0.604908        -0.406826        -0.977092
 C         0.420024        -1.248015         0.354073
 C         0.558593         0.126716         1.146889
 O         1.107020         0.052342         2.522388
 C         1.830740        -1.249319         2.688745
 O         2.533462        -1.759833         1.611984
 C         1.956161        -1.445186         0.408472
 H         3.539769         1.035922         0.737311
 H         3.026742         1.257010        -1.024553
 H         2.105071         2.144870         0.208870
 H        -0.094654         0.339774        -1.272272
 H         0.863664        -1.036827        -1.813733
 H        -0.338028        -2.034826         0.541074
 H        -0.223796         0.798255         1.425604
 H         2.597097        -1.067572         3.457787
 H         1.118361        -2.035048         3.011087
 H         2.514121        -2.125106        -0.210580
