19
Iteration:  1009charge 0 multiplicity 1
 C         2.707358         1.170210        -0.189171
 C         1.709678         0.039537        -0.015301
 C         0.563597        -0.415341        -0.921892
 C         0.287007        -1.194194         0.371345
 C         0.603481         0.101387         1.234505
 O         1.020046        -0.025395         2.582721
 C         1.870078        -1.301072         2.705589
 O         2.720074        -1.563251         1.609762
 C         1.869254        -1.474695         0.469651
 H         3.380317         1.095867         0.669344
 H         3.356272         1.380443        -1.079566
 H         2.296480         2.122678         0.047511
 H        -0.203917         0.365846        -1.227212
 H         0.926204        -1.025269        -1.757779
 H        -0.537485        -1.956287         0.487256
 H        -0.052252         0.960980         1.266180
 H         2.524553        -1.305652         3.592755
 H         1.227468        -2.146561         2.777800
 H         2.349200        -2.165738        -0.219856
