19
Iteration:  3533
 C         2.737687         1.185009        -0.271795
 C         1.756663         0.065263         0.063784
 C         0.670313        -0.360693        -0.817537
 C         0.361884        -1.205249         0.353256
 C         0.623365         0.034104         1.207756
 O         1.064507        -0.071393         2.630161
 C         1.717267        -1.306388         2.668874
 O         2.592992        -1.537702         1.633653
 C         1.901010        -1.446944         0.421376
 H         3.348664         1.257449         0.594033
 H         3.310236         0.941932        -1.192871
 H         2.083517         2.086344        -0.269430
 H        -0.009872         0.443074        -1.108445
 H         0.901899        -0.907373        -1.815548
 H        -0.419026        -2.009314         0.411696
 H        -0.133215         0.929128         1.229934
 H         2.390670        -1.215517         3.546892
 H         0.964777        -2.211079         2.780902
 H         2.261068        -2.131705        -0.407279
