19
Iteration:  3462
 C         2.691588         1.155087        -0.108620
 C         1.680879         0.101951         0.038011
 C         0.577109        -0.353229        -0.865937
 C         0.365149        -1.228078         0.337003
 C         0.671916         0.113543         1.161893
 O         1.109851        -0.063418         2.578119
 C         1.746724        -1.250900         2.749413
 O         2.621007        -1.591732         1.585125
 C         1.959202        -1.495975         0.418372
 H         3.300601         1.399802         0.841357
 H         3.435414         0.678879        -0.780500
 H         2.237922         2.086260        -0.473078
 H        -0.268479         0.246186        -1.285379
 H         0.848717        -0.949493        -1.715482
 H        -0.536559        -1.794656         0.436868
 H        -0.168249         0.744619         1.162857
 H         2.333753        -1.235919         3.678176
 H         0.955464        -2.072678         2.654915
 H         2.296788        -2.110075        -0.397746
