19
Iteration:  3703charge 0 multiplicity 1
 C         2.822433         1.213347        -0.229627
 C         1.706908         0.139106         0.011809
 C         0.533666        -0.433440        -0.872531
 C         0.430465        -1.210954         0.427438
 C         0.624510         0.017718         1.196815
 O         1.037848        -0.045959         2.555321
 C         1.665841        -1.347227         2.765365
 O         2.610428        -1.601197         1.640729
 C         1.973854        -1.348201         0.376388
 H         3.304085         1.424265         0.747317
 H         3.429307         0.814922        -1.076113
 H         2.288938         2.047305        -0.753004
 H        -0.212275         0.386746        -1.002097
 H         0.847150        -0.924505        -1.835852
 H        -0.217769        -2.094575         0.681482
 H        -0.047025         0.828974         1.110245
 H         2.223695        -1.331655         3.733884
 H         0.810857        -2.067664         2.984905
 H         2.543432        -2.074182        -0.340364
