19
Iteration:  3570
 C         2.618461         1.299959        -0.209066
 C         1.710117         0.153199         0.032643
 C         0.583042        -0.460905        -0.939711
 C         0.442976        -1.245545         0.351604
 C         0.612206         0.107108         1.182380
 O         1.232629        -0.006899         2.491282
 C         1.691189        -1.276898         2.739768
 O         2.489813        -1.829981         1.716134
 C         2.002861        -1.341289         0.471429
 H         3.471545         1.014976         0.531830
 H         3.341151         1.499946        -1.095389
 H         2.301996         2.273230         0.114143
 H        -0.308795         0.233045        -0.931528
 H         0.910320        -0.947553        -1.785054
 H        -0.325657        -1.971446         0.426317
 H        -0.154855         0.820726         1.157407
 H         2.409118        -1.244070         3.559680
 H         0.794428        -1.982479         2.864774
 H         2.507660        -2.121315        -0.216790
