19
Iteration:  4950
 C         2.663514         1.282323        -0.207489
 C         1.750451         0.133374         0.096211
 C         0.672975        -0.419335        -0.906965
 C         0.490850        -1.357606         0.330852
 C         0.678296         0.091803         1.177377
 O         1.169494         0.081080         2.456121
 C         1.686451        -1.211425         2.720054
 O         2.384629        -1.826003         1.759951
 C         1.981489        -1.393300         0.461022
 H         3.458795         1.173845         0.501039
 H         2.948033         1.166675        -1.256772
 H         2.110645         2.186257         0.038868
 H        -0.216787         0.188855        -1.152548
 H         0.999053        -0.946065        -1.971982
 H        -0.228667        -2.144922         0.400534
 H        -0.144332         0.844052         1.147509
 H         2.336609        -1.255915         3.624265
 H         0.691432        -1.715171         2.937570
 H         2.527909        -2.073909        -0.281139
