19
Iteration:  1343charge 0 multiplicity 1
 C         2.793466         1.143314        -0.146885
 C         1.611486         0.216001         0.080333
 C         0.475272        -0.448808        -0.793870
 C         0.479170        -1.340986         0.396384
 C         0.590953        -0.010749         1.201854
 O         1.170376        -0.028125         2.449358
 C         1.752675        -1.320800         2.726491
 O         2.543135        -1.573727         1.627264
 C         1.981582        -1.247503         0.378470
 H         3.435853         1.124818         0.706067
 H         3.359131         0.801696        -1.012099
 H         2.342801         2.190305        -0.298648
 H        -0.373461         0.060824        -1.215223
 H         0.830938        -1.043856        -1.676723
 H        -0.271292        -2.072501         0.453571
 H        -0.263436         0.732043         1.213355
 H         2.345277        -1.021486         3.563547
 H         0.858116        -2.087475         2.815424
 H         2.541713        -1.918680        -0.394572
