19
Iteration:   532charge 0 multiplicity 1
 C         2.722128         1.286736        -0.318775
 C         1.799055         0.156495         0.069937
 C         0.588611        -0.466993        -0.883671
 C         0.305096        -1.279099         0.355536
 C         0.654576         0.143901         1.226837
 O         0.972708        -0.120171         2.646552
 C         1.878208        -1.250445         2.803158
 O         2.568052        -1.732007         1.595849
 C         1.874145        -1.376894         0.408073
 H         3.311805         1.773083         0.459133
 H         3.536798         0.865502        -0.950707
 H         2.265298         2.080934        -0.874348
 H         0.102738         0.435227        -1.348679
 H         0.924967        -0.984261        -1.806440
 H        -0.328744        -2.213602         0.737212
 H        -0.128794         0.886520         1.141398
 H         2.703527        -0.812389         3.433564
 H         1.274747        -1.980697         3.280374
 H         2.250354        -1.971125        -0.383334
