19
Iteration:    89
 C         2.696343         1.208162        -0.326898
 C         1.734919         0.129713         0.042007
 C         0.501609        -0.436675        -0.879964
 C         0.321492        -1.195707         0.436344
 C         0.675048         0.058810         1.209742
 O         1.108679        -0.019498         2.560416
 C         1.651915        -1.332472         2.747800
 O         2.625507        -1.684903         1.705492
 C         2.066284        -1.354299         0.398947
 H         3.350676         1.484323         0.517510
 H         3.318603         0.996302        -1.151809
 H         2.120927         2.122630        -0.545078
 H        -0.255582         0.280132        -1.169299
 H         0.787568        -1.107115        -1.725430
 H        -0.381678        -1.969245         0.703427
 H         0.102987         0.975455         1.046906
 H         2.248544        -1.365527         3.676500
 H         0.995258        -2.154245         2.702590
 H         2.630978        -1.906641        -0.345673
