19
Iteration:  3893
 C         2.611479         1.196243        -0.176164
 C         1.736648         0.092556         0.055847
 C         0.700580        -0.331152        -0.906673
 C         0.418705        -1.297979         0.340008
 C         0.648369         0.058538         1.166669
 O         1.157759        -0.018269         2.506162
 C         1.655074        -1.283764         2.740780
 O         2.557317        -1.646864         1.713116
 C         1.916448        -1.416222         0.439254
 H         3.267433         1.540079         0.639895
 H         3.361662         0.994846        -0.961648
 H         2.020753         1.980418        -0.748791
 H        -0.131189         0.405217        -1.017413
 H         1.165245        -0.803058        -1.785903
 H        -0.342109        -2.067906         0.612268
 H        -0.182191         0.846029         1.279761
 H         2.373773        -1.213301         3.592783
 H         0.904024        -2.114616         2.762209
 H         2.311231        -2.128201        -0.301563
