19
Iteration:  3168charge 0 multiplicity 1
 C         2.800517         1.053432        -0.159547
 C         1.740541         0.078781         0.087785
 C         0.654514        -0.311471        -0.936104
 C         0.311313        -1.201505         0.407739
 C         0.629138         0.056771         1.245033
 O         0.989089        -0.120113         2.618331
 C         1.787960        -1.331421         2.711482
 O         2.583862        -1.430417         1.568902
 C         1.917238        -1.439814         0.364107
 H         3.544246         1.401927         0.596006
 H         3.367891         0.861245        -1.035158
 H         2.409241         1.954071        -0.515245
 H        -0.237650         0.319428        -1.101981
 H         0.836346        -0.921724        -1.779652
 H        -0.381409        -2.046667         0.542029
 H        -0.144917         0.954381         1.220053
 H         2.386869        -1.312139         3.626649
 H         1.123768        -2.135511         2.718589
 H         2.266152        -2.102786        -0.415227
