19
Iteration:  3993charge 0 multiplicity 1
 C         2.897509         1.127293        -0.153269
 C         1.680065         0.127686         0.083132
 C         0.566110        -0.476124        -0.885770
 C         0.349619        -1.219010         0.436097
 C         0.608691         0.045131         1.169445
 O         0.926550        -0.147539         2.485491
 C         1.736589        -1.209730         2.733432
 O         2.621195        -1.519589         1.632050
 C         1.982369        -1.344227         0.398580
 H         3.620679         1.095212         0.707466
 H         3.439896         0.795147        -1.040354
 H         2.610942         2.164092        -0.271876
 H        -0.279970         0.262307        -1.203192
 H         0.994744        -0.949865        -1.714648
 H        -0.366233        -1.985059         0.589774
 H        -0.134643         0.840020         1.191589
 H         2.292507        -1.001260         3.620763
 H         1.167915        -2.154654         2.638181
 H         2.466317        -1.985597        -0.284094
