19
Iteration:   786
 C         2.675320         1.145580        -0.258010
 C         1.658920         0.137213         0.067061
 C         0.626806        -0.312695        -0.876180
 C         0.427032        -1.282556         0.436205
 C         0.644737        -0.004002         1.214149
 O         1.141392        -0.017723         2.508661
 C         1.759991        -1.253443         2.760452
 O         2.552145        -1.670194         1.617985
 C         1.911106        -1.370268         0.436575
 H         3.477480         0.999816         0.489576
 H         3.079264         1.077189        -1.229557
 H         2.281578         2.182537        -0.291233
 H        -0.188440         0.349305        -1.189817
 H         1.009119        -0.898156        -1.802246
 H        -0.381430        -2.122336         0.659878
 H        -0.222413         0.679907         1.265304
 H         2.512269        -0.980438         3.528710
 H         0.995243        -2.019084         3.005667
 H         2.329948        -1.963375        -0.330589
