19
Iteration:  2656
 C         2.800923         1.038695        -0.230798
 C         1.679286         0.152304         0.076996
 C         0.598652        -0.307970        -0.857937
 C         0.323630        -1.317007         0.295029
 C         0.588426        -0.010648         1.239199
 O         1.034694        -0.053294         2.616769
 C         1.726168        -1.328630         2.747422
 O         2.648667        -1.521866         1.627552
 C         1.986827        -1.273133         0.354727
 H         3.288996         1.253121         0.808334
 H         3.468219         0.471503        -0.848201
 H         2.362129         1.958650        -0.619874
 H        -0.206794         0.421652        -1.020713
 H         0.911705        -0.794686        -1.784345
 H        -0.500042        -2.090084         0.266201
 H        -0.256476         0.828991         1.297625
 H         2.340251        -1.300987         3.650355
 H         1.003072        -2.118138         2.719626
 H         2.643100        -1.848801        -0.376868
