19
Iteration:    27
 C         2.741216         1.178236        -0.233593
 C         1.710824         0.099754         0.058141
 C         0.567423        -0.305962        -0.869220
 C         0.428673        -1.274190         0.278770
 C         0.551549        -0.004043         1.146567
 O         1.031829         0.000188         2.574346
 C         1.964317        -1.133337         2.843938
 O         2.483756        -1.828047         1.634949
 C         1.958403        -1.420594         0.427644
 H         3.336956         1.406085         0.703960
 H         3.383384         1.003486        -1.111380
 H         2.122548         2.107291        -0.495965
 H        -0.277774         0.390863        -0.880216
 H         0.709348        -0.716792        -1.903287
 H        -0.394458        -2.091351         0.457098
 H        -0.225751         0.780478         1.116989
 H         2.733804        -0.533462         3.366377
 H         1.255171        -1.778505         3.402081
 H         2.470496        -1.995097        -0.336550
