19
Iteration:  2955
 C         2.778136         1.165159        -0.120558
 C         1.644271         0.079925         0.036786
 C         0.610350        -0.329548        -0.907446
 C         0.394804        -1.321776         0.286301
 C         0.534102         0.037472         1.170530
 O         1.099549        -0.017182         2.551520
 C         1.828236        -1.222693         2.746546
 O         2.555835        -1.678516         1.655039
 C         1.942610        -1.363327         0.443791
 H         3.375834         0.955498         0.756010
 H         3.330200         1.101432        -1.044672
 H         2.354702         2.223939        -0.122195
 H        -0.092179         0.443300        -1.100812
 H         0.905844        -0.851064        -1.886978
 H        -0.344934        -2.066825         0.399279
 H        -0.343559         0.787852         1.171168
 H         2.490757        -1.132402         3.597855
 H         0.943075        -1.997432         2.881114
 H         2.537734        -1.861257        -0.332350
