19
Iteration:  1438
 C         2.728220         1.208878        -0.216898
 C         1.653130         0.144984         0.071191
 C         0.529384        -0.366649        -0.828463
 C         0.493624        -1.357422         0.405952
 C         0.574407         0.059151         1.212648
 O         1.110375         0.012720         2.528177
 C         1.718944        -1.307861         2.713617
 O         2.565831        -1.705665         1.586506
 C         1.997108        -1.297802         0.433997
 H         3.599404         1.241916         0.471639
 H         3.189643         0.789867        -1.093976
 H         2.369683         2.273693        -0.458288
 H        -0.398490         0.214263        -1.040973
 H         0.896259        -0.926865        -1.769958
 H        -0.050039        -2.331454         0.748801
 H        -0.177265         0.820408         1.227023
 H         2.405521        -1.289902         3.529556
 H         0.849475        -1.897538         2.827981
 H         2.591878        -1.788630        -0.286722
