19
Iteration:  2971
 C         2.803320         1.126123        -0.108754
 C         1.721622         0.165181         0.072392
 C         0.566214        -0.424417        -0.960228
 C         0.384503        -1.227777         0.337768
 C         0.662749         0.025419         1.231464
 O         1.008971        -0.084891         2.580056
 C         1.761948        -1.286385         2.789635
 O         2.564094        -1.549267         1.601554
 C         1.898160        -1.357738         0.295436
 H         3.611180         1.242398         0.639726
 H         3.370011         0.878142        -1.059848
 H         2.457316         2.132312        -0.118494
 H        -0.361705         0.144893        -1.311245
 H         1.000878        -0.937352        -1.775352
 H        -0.299950        -2.154857         0.453518
 H        -0.082790         0.815073         1.270416
 H         2.455112        -0.905958         3.602215
 H         1.129386        -2.111803         3.257613
 H         2.398168        -2.181062        -0.265130
