19
Iteration:  3634charge 0 multiplicity 1
 C         2.755574         1.231979        -0.142828
 C         1.774101         0.107125         0.000948
 C         0.529328        -0.432682        -0.880576
 C         0.368411        -1.227883         0.398097
 C         0.651076         0.104691         1.139417
 O         1.025695        -0.094966         2.496977
 C         1.763264        -1.275872         2.803584
 O         2.622878        -1.613825         1.622638
 C         1.945025        -1.402507         0.405513
 H         3.158808         1.105380         0.893440
 H         3.551584         0.880756        -0.833087
 H         2.498884         2.180428        -0.437741
 H        -0.369794         0.282927        -1.106892
 H         0.816144        -0.977493        -1.770798
 H        -0.345043        -1.950550         0.672539
 H        -0.045481         0.965637         1.125139
 H         2.236148        -1.057433         3.761084
 H         1.086278        -2.146859         2.994194
 H         2.031383        -2.182593        -0.412122
