19
Iteration:  3712charge 0 multiplicity 1
 C         2.724049         1.243498        -0.253052
 C         1.764486         0.128217        -0.068981
 C         0.596681        -0.414522        -0.906291
 C         0.437879        -1.277862         0.476505
 C         0.675276         0.104882         1.201635
 O         1.072643        -0.080307         2.608697
 C         1.632277        -1.282133         2.728556
 O         2.565277        -1.638706         1.660615
 C         2.002457        -1.402367         0.409021
 H         3.222779         1.335770         0.760549
 H         3.598712         1.050454        -0.928811
 H         2.245303         2.184941        -0.379130
 H        -0.356144         0.239412        -1.055910
 H         0.706631        -1.072336        -1.777894
 H        -0.449353        -1.908897         0.507471
 H        -0.171197         0.800349         1.183470
 H         2.290883        -1.180980         3.615856
 H         0.858747        -2.069579         2.709458
 H         2.289612        -2.055433        -0.495808
