19
Iteration:  3685charge 0 multiplicity 1
 C         2.818903         1.051278        -0.272861
 C         1.676821         0.194409         0.156356
 C         0.544820        -0.302277        -0.887496
 C         0.392064        -1.353571         0.330518
 C         0.565905         0.099850         1.213921
 O         1.040773        -0.097868         2.548004
 C         1.763245        -1.313904         2.678981
 O         2.642129        -1.548800         1.699252
 C         1.975264        -1.326858         0.452154
 H         3.324797         1.362494         0.634008
 H         3.509074         0.429240        -0.828890
 H         2.439514         1.900535        -0.968658
 H        -0.334269         0.242574        -1.040408
 H         0.907714        -0.789777        -1.817873
 H        -0.459945        -2.082423         0.261107
 H        -0.381525         0.713736         1.204011
 H         2.242273        -1.154012         3.633355
 H         0.958489        -2.087415         2.761258
 H         2.460766        -1.754449        -0.351657
