19
Iteration:  4593
 C         2.720558         1.260328        -0.159977
 C         1.685468         0.157212         0.073797
 C         0.705395        -0.470735        -0.956838
 C         0.396018        -1.277470         0.378360
 C         0.563727         0.061918         1.130867
 O         1.135595         0.076757         2.414081
 C         1.678695        -1.211259         2.768244
 O         2.490366        -1.823440         1.759495
 C         2.042900        -1.442482         0.461142
 H         3.411601         1.377968         0.620041
 H         3.178209         1.384133        -1.114319
 H         2.089404         2.118641        -0.171492
 H        -0.004719         0.313886        -1.329789
 H         0.995125        -0.990161        -1.800285
 H        -0.334103        -2.112307         0.721319
 H        -0.252621         0.799770         1.039705
 H         2.420212        -0.979010         3.627600
 H         0.802701        -1.905238         3.063018
 H         2.600739        -1.980228        -0.286230
