19
Iteration:   470charge 0 multiplicity 1
 C         2.746702         1.155513         0.020031
 C         1.618951         0.101102        -0.029696
 C         0.515585        -0.529137        -0.870558
 C         0.379787        -1.255697         0.432685
 C         0.631331         0.073274         1.201227
 O         1.178082         0.081767         2.547696
 C         1.723078        -1.198548         2.586658
 O         2.632936        -1.593651         1.564519
 C         1.963782        -1.410608         0.365230
 H         3.220179         0.957619         1.044249
 H         3.410218         0.765114        -0.726961
 H         2.515895         2.245925        -0.151937
 H        -0.242598         0.182117        -1.134162
 H         0.727381        -1.263203        -1.724235
 H        -0.440625        -1.915589         0.670077
 H        -0.315026         0.583738         1.366581
 H         2.414290        -1.230252         3.473884
 H         0.928640        -2.024613         2.729175
 H         2.295352        -2.312968        -0.322059
