19
Iteration:   739charge 0 multiplicity 1
 C         2.675449         1.182801        -0.192189
 C         1.673548         0.076396        -0.018833
 C         0.553375        -0.418016        -0.772367
 C         0.402347        -1.199101         0.489804
 C         0.636790         0.106772         1.192763
 O         1.185638        -0.055045         2.481551
 C         1.677362        -1.296642         2.681136
 O         2.627941        -1.610054         1.666523
 C         1.961529        -1.395677         0.349567
 H         3.165351         1.288533         0.817054
 H         3.454261         0.869082        -0.932471
 H         2.287546         2.078798        -0.667082
 H        -0.327388         0.269322        -0.959409
 H         0.751167        -0.988304        -1.678713
 H        -0.303454        -2.009005         0.630075
 H        -0.091887         0.968301         1.197285
 H         2.199487        -1.309970         3.728171
 H         0.865073        -2.045162         2.553580
 H         2.458763        -2.139163        -0.322684
