19
Iteration:  2141
 C         2.761291         1.195675        -0.288703
 C         1.751150         0.086745         0.113879
 C         0.671686        -0.252436        -0.898856
 C         0.341730        -1.229082         0.428215
 C         0.557880         0.021065         1.220466
 O         1.003008        -0.133389         2.587259
 C         1.820906        -1.352583         2.719791
 O         2.648002        -1.518096         1.629508
 C         1.869721        -1.450215         0.379193
 H         3.404110         1.540144         0.536816
 H         3.382234         0.634356        -0.996548
 H         2.064192         1.916468        -0.603737
 H        -0.221371         0.506365        -0.991142
 H         1.007157        -0.659488        -1.848978
 H        -0.447212        -2.026692         0.624974
 H        -0.212315         0.793134         1.117036
 H         2.384569        -1.261007         3.632878
 H         1.103766        -2.256204         2.894574
 H         2.263019        -1.975518        -0.424395
