19
Iteration:  1247
 C         2.651279         1.184840        -0.185624
 C         1.592956         0.135245         0.163646
 C         0.632679        -0.352411        -0.837300
 C         0.406209        -1.325594         0.417857
 C         0.612297        -0.005086         1.187769
 O         1.202356         0.034516         2.497368
 C         1.704518        -1.230992         2.717608
 O         2.587880        -1.693818         1.605337
 C         2.021602        -1.396817         0.396528
 H         3.296123         1.543787         0.600749
 H         3.291293         0.826304        -1.074132
 H         2.049370         2.040962        -0.532360
 H        -0.301391         0.218835        -1.095143
 H         1.112099        -0.597859        -1.797036
 H        -0.502370        -2.078808         0.527202
 H        -0.361063         0.595698         1.102073
 H         2.414497        -1.270638         3.580472
 H         0.922888        -1.953519         2.762862
 H         2.417783        -1.870137        -0.544987
