19
Iteration:  1340charge 0 multiplicity 1
 C         2.779862         1.130602        -0.162626
 C         1.600052         0.233172         0.114296
 C         0.454069        -0.431876        -0.823305
 C         0.463823        -1.345111         0.414136
 C         0.616045        -0.018864         1.181674
 O         1.183874        -0.048977         2.462864
 C         1.735081        -1.307364         2.720694
 O         2.549205        -1.556326         1.637512
 C         1.994266        -1.262959         0.371571
 H         3.413696         1.179878         0.779649
 H         3.310846         0.736579        -0.999204
 H         2.393408         2.200535        -0.424762
 H        -0.270177         0.227401        -1.305786
 H         0.864916        -1.062450        -1.684503
 H        -0.275560        -2.207592         0.294710
 H        -0.212048         0.633368         1.286794
 H         2.383323        -1.069990         3.560609
 H         0.850511        -2.001526         2.864510
 H         2.529516        -1.900699        -0.280541
