19
Iteration:  1135
 C         2.759656         1.225346        -0.288677
 C         1.633721         0.134097         0.067941
 C         0.512953        -0.418678        -0.832171
 C         0.459890        -1.317800         0.396163
 C         0.593013         0.053389         1.137831
 O         1.143717        -0.034920         2.552153
 C         1.766066        -1.318001         2.789049
 O         2.547711        -1.647464         1.607705
 C         1.934687        -1.316460         0.429322
 H         3.388268         1.219852         0.598182
 H         3.555213         1.111379        -1.030562
 H         2.319247         2.287771        -0.358598
 H        -0.219852         0.345168        -0.868513
 H         0.707166        -0.919461        -1.823980
 H        -0.107937        -2.198642         0.662584
 H        -0.260275         0.833823         1.197108
 H         2.492277        -1.187221         3.511680
 H         1.002656        -2.100537         2.952762
 H         2.572749        -1.960885        -0.299394
