19
Iteration:   357
 C         2.660259         1.205445        -0.254118
 C         1.749364         0.048373         0.064145
 C         0.609233        -0.407726        -0.889721
 C         0.275575        -1.203999         0.398909
 C         0.642881         0.090681         1.217442
 O         1.161999        -0.011692         2.548190
 C         1.710730        -1.333576         2.726649
 O         2.596869        -1.615162         1.646419
 C         1.979160        -1.431085         0.462536
 H         3.277231         1.486850         0.562152
 H         3.362806         0.948432        -1.096491
 H         2.132142         2.045692        -0.631237
 H        -0.172590         0.347608        -1.200387
 H         0.855698        -1.017738        -1.719998
 H        -0.634067        -1.888350         0.538198
 H         0.115225         0.998378         1.118272
 H         2.335616        -1.236815         3.623312
 H         1.078105        -2.227036         2.805988
 H         2.419507        -2.028035        -0.324541
