19
Iteration:  3475
 C         2.871874         1.131485        -0.160285
 C         1.691662         0.134566         0.106819
 C         0.502334        -0.412826        -0.906115
 C         0.373177        -1.286162         0.397177
 C         0.599201         0.040717         1.240426
 O         1.033322        -0.006487         2.597850
 C         1.756393        -1.296722         2.639983
 O         2.620037        -1.582912         1.611588
 C         1.907906        -1.362356         0.330227
 H         3.304152         1.404976         0.837898
 H         3.632438         0.761145        -0.843294
 H         2.445537         2.074159        -0.641535
 H        -0.285233         0.342623        -1.001228
 H         0.970932        -0.874829        -1.828397
 H        -0.263968        -2.155683         0.654971
 H        -0.139422         0.901891         1.205642
 H         2.424673        -1.260585         3.539095
 H         0.975443        -2.140411         2.792470
 H         2.482078        -1.987545        -0.350946
