19
Iteration:   872
 C         2.793832         1.155083        -0.194472
 C         1.613042         0.181501         0.082116
 C         0.532968        -0.346901        -0.833238
 C         0.352948        -1.323673         0.413054
 C         0.503414        -0.016096         1.188175
 O         1.204211         0.031799         2.475970
 C         1.735711        -1.253898         2.670824
 O         2.668420        -1.609493         1.662964
 C         1.964404        -1.433424         0.415415
 H         3.404292         1.447846         0.738997
 H         3.399163         0.610302        -0.874530
 H         2.385909         2.134553        -0.614234
 H        -0.158069         0.468553        -1.065641
 H         0.921110        -0.755723        -1.847990
 H        -0.391649        -2.158514         0.635357
 H        -0.519864         0.489757         1.246603
 H         2.240204        -1.351847         3.726518
 H         0.859365        -1.982037         2.726615
 H         2.383026        -2.188470        -0.303718
