19
Iteration:  1559charge 0 multiplicity 1
 C         2.670379         1.357873        -0.098916
 C         1.722887         0.076868         0.031376
 C         0.580991        -0.416667        -0.911723
 C         0.389120        -1.263231         0.451835
 C         0.620368         0.076299         1.182684
 O         1.142016         0.050309         2.471976
 C         1.764400        -1.289766         2.709372
 O         2.648697        -1.729765         1.626264
 C         1.874295        -1.499922         0.374266
 H         3.390196         1.353736         0.677639
 H         3.287685         1.410508        -0.940766
 H         2.040306         2.299320        -0.039551
 H        -0.244035         0.238546        -1.115452
 H         0.839559        -1.126138        -1.749914
 H        -0.281164        -2.113077         0.797288
 H        -0.306962         0.603187         1.245611
 H         2.280895        -1.178325         3.660349
 H         0.923217        -2.076863         2.889212
 H         2.391229        -2.020901        -0.374978
