19
Iteration:  4637charge 0 multiplicity 1
 C         2.665894         1.212129        -0.183995
 C         1.763383         0.013594         0.006853
 C         0.727147        -0.409281        -0.965542
 C         0.443504        -1.274167         0.466017
 C         0.616577         0.087390         1.155421
 O         1.110937         0.056971         2.532980
 C         1.615770        -1.207114         2.698640
 O         2.549445        -1.673574         1.682747
 C         1.977622        -1.468407         0.475577
 H         3.081167         1.425334         0.759143
 H         3.524498         1.156543        -0.831906
 H         2.134217         2.024450        -0.628512
 H        -0.134673         0.243360        -1.259604
 H         1.075670        -0.921854        -1.800604
 H        -0.564439        -1.833452         0.521579
 H        -0.332169         0.646113         1.243184
 H         2.184392        -1.242356         3.698154
 H         0.776919        -2.017860         2.783422
 H         2.410393        -2.047555        -0.276468
