19
Iteration:  2079charge 0 multiplicity 1
 C         2.589972         1.217804        -0.025042
 C         1.709875         0.085675         0.066876
 C         0.583374        -0.409150        -0.902470
 C         0.345360        -1.252486         0.423442
 C         0.646570         0.099202         1.210186
 O         1.265987         0.032875         2.446908
 C         1.737721        -1.247493         2.665162
 O         2.611930        -1.742965         1.653033
 C         1.893762        -1.426995         0.315516
 H         3.196150         1.293229         0.923213
 H         3.384136         1.369829        -0.740384
 H         2.075664         2.184963         0.011505
 H        -0.298425         0.127872        -1.159957
 H         0.887487        -1.004221        -1.744667
 H        -0.426811        -1.991457         0.404314
 H        -0.077994         0.942428         1.236240
 H         2.179424        -1.376201         3.649438
 H         0.910313        -1.953312         2.673087
 H         2.486728        -2.015995        -0.406422
