19
Iteration:  4806charge 0 multiplicity 1
 C         2.738599         1.275856        -0.228260
 C         1.723058         0.073394         0.031331
 C         0.644761        -0.446145        -0.943506
 C         0.377353        -1.254909         0.392276
 C         0.737172         0.082005         1.125455
 O         1.060962        -0.033530         2.523852
 C         1.656297        -1.261075         2.753749
 O         2.522680        -1.651868         1.776855
 C         1.958492        -1.423158         0.392763
 H         3.233130         1.370833         0.749402
 H         3.427656         1.203849        -1.060171
 H         2.174623         2.197403        -0.283595
 H        -0.199745         0.037898        -1.306811
 H         1.227192        -1.129451        -1.642644
 H        -0.473524        -1.857446         0.608380
 H        -0.007782         0.882873         1.166552
 H         2.414982        -1.051384         3.469874
 H         0.770465        -2.006263         2.932900
 H         2.499250        -2.217761        -0.235299
