19
Iteration:   220charge 0 multiplicity 1
 C         2.814546         1.235168        -0.151110
 C         1.729302         0.157533         0.145139
 C         0.629527        -0.334287        -0.871595
 C         0.339267        -1.250598         0.246739
 C         0.557729        -0.027318         1.219017
 O         0.895827        -0.225118         2.603518
 C         2.138639        -0.802615         2.620239
 O         2.333067        -1.927950         1.685242
 C         1.931997        -1.452508         0.418233
 H         3.788102         1.176146         0.398837
 H         3.035129         0.874803        -1.138253
 H         2.471724         2.275526        -0.361254
 H        -0.189669         0.263962        -1.232683
 H         1.101384        -0.849372        -1.783562
 H        -0.436333        -1.999758         0.371723
 H        -0.260435         0.768016         1.184898
 H         2.875436        -0.012150         2.601306
 H         2.218364        -1.243311         3.650893
 H         2.455895        -2.112478        -0.329311
