19
Iteration:  1457
 C         2.711685         1.167598        -0.245443
 C         1.654656         0.131744         0.059719
 C         0.549914        -0.394842        -0.884010
 C         0.378268        -1.263455         0.356129
 C         0.624494         0.033006         1.238483
 O         1.182453        -0.092117         2.538472
 C         1.709062        -1.342391         2.729386
 O         2.650346        -1.514204         1.708143
 C         1.941386        -1.387648         0.364226
 H         3.217045         1.506383         0.700409
 H         3.423926         1.005803        -1.058112
 H         2.290309         2.080430        -0.567075
 H        -0.144956         0.448655        -1.059459
 H         0.783185        -0.905949        -1.775165
 H        -0.603447        -1.839586         0.453837
 H        -0.240338         0.700261         1.362528
 H         2.225099        -1.246724         3.721538
 H         0.938799        -2.200625         2.619206
 H         2.394497        -2.158412        -0.268733
