19
Iteration:  1213
 C         2.788676         1.231393        -0.113714
 C         1.673463         0.092887        -0.075904
 C         0.396142        -0.511381        -0.948666
 C         0.279339        -1.250663         0.398401
 C         0.651431         0.061825         1.114616
 O         1.108807        -0.014426         2.627023
 C         1.744521        -1.293873         2.775237
 O         2.719358        -1.618128         1.621097
 C         2.021871        -1.357527         0.417764
 H         3.488057         1.139880         0.691802
 H         3.276235         1.413023        -1.103523
 H         2.199453         2.183909         0.041227
 H        -0.485590         0.113478        -1.094422
 H         0.924370        -0.940222        -1.819921
 H        -0.617492        -1.949356         0.607399
 H        -0.188606         0.840581         1.232103
 H         2.238410        -1.315382         3.728476
 H         0.997569        -2.055172         2.742737
 H         2.692363        -1.965474        -0.315986
