19
Iteration:  2818
 C         2.811267         1.119647        -0.151492
 C         1.692652         0.135300         0.037813
 C         0.552347        -0.362843        -0.918503
 C         0.349898        -1.203405         0.452662
 C         0.608882         0.049026         1.229188
 O         0.983544        -0.166202         2.536934
 C         1.707776        -1.278056         2.721734
 O         2.706347        -1.519961         1.607970
 C         1.922755        -1.384581         0.428556
 H         3.626756         1.227098         0.583586
 H         3.467869         0.944330        -1.065609
 H         2.595014         2.143719        -0.372165
 H        -0.290619         0.398617        -1.257311
 H         0.908811        -0.905748        -1.825948
 H        -0.454324        -2.017480         0.430580
 H        -0.080743         0.812546         1.100336
 H         2.368488        -1.276846         3.611981
 H         1.053022        -2.192270         2.707061
 H         2.451316        -2.038282        -0.331452
