19
Iteration:   224
 C         2.810921         1.228424        -0.166338
 C         1.709984         0.177212         0.114999
 C         0.613199        -0.356585        -0.897883
 C         0.359838        -1.242263         0.250195
 C         0.610272         0.005166         1.224622
 O         0.870674        -0.227192         2.612555
 C         2.136823        -0.853123         2.642983
 O         2.329474        -1.915457         1.699121
 C         1.933102        -1.440180         0.405444
 H         3.729469         1.200595         0.402631
 H         3.091720         0.893160        -1.180091
 H         2.418166         2.247169        -0.268783
 H        -0.257656         0.258899        -1.218145
 H         1.163328        -0.844165        -1.712276
 H        -0.430865        -2.096333         0.389501
 H        -0.152599         0.787084         1.243195
 H         2.904504        -0.023954         2.634946
 H         2.234335        -1.264757         3.603805
 H         2.420689        -2.101581        -0.268673
