19
Iteration:  2171charge 0 multiplicity 1
 C         2.753754         1.144276        -0.262400
 C         1.686921         0.138077         0.001806
 C         0.556316        -0.397509        -0.906827
 C         0.321893        -1.162138         0.427599
 C         0.640291         0.104580         1.212289
 O         0.992184        -0.164737         2.619742
 C         1.731148        -1.419833         2.740864
 O         2.655959        -1.530653         1.662670
 C         2.042514        -1.312499         0.383387
 H         3.404630         1.168839         0.587902
 H         3.432686         0.741670        -1.059450
 H         2.447184         2.193543        -0.411080
 H        -0.291607         0.281613        -1.119489
 H         0.812794        -0.901806        -1.885167
 H        -0.493840        -1.834013         0.779267
 H        -0.089972         0.873946         1.093186
 H         2.365610        -1.466068         3.585132
 H         1.139079        -2.272728         2.731130
 H         2.541923        -1.779561        -0.481230
