19
Iteration:  3215
 C         2.700960         1.199848        -0.237729
 C         1.697510         0.184414         0.098071
 C         0.564019        -0.359242        -0.867455
 C         0.465521        -1.294489         0.360256
 C         0.618562         0.037159         1.200537
 O         1.155210        -0.018762         2.585232
 C         1.648880        -1.312070         2.758195
 O         2.522592        -1.715915         1.629937
 C         2.000105        -1.365752         0.386403
 H         3.495017         1.269367         0.489370
 H         3.235571         0.965341        -1.151414
 H         2.474571         2.281218        -0.456256
 H        -0.123428         0.407368        -1.054286
 H         1.068439        -0.769453        -1.801477
 H        -0.354531        -2.009629         0.506363
 H        -0.210373         0.703311         1.079509
 H         2.293546        -1.284965         3.645446
 H         0.936276        -2.050085         2.942342
 H         2.426841        -1.822839        -0.522241
