19
Iteration:  2436
 C         2.657660         1.252794        -0.002715
 C         1.637563         0.014397         0.006458
 C         0.586939        -0.406198        -1.014669
 C         0.251102        -1.226538         0.343275
 C         0.668562         0.190946         1.185642
 O         1.220100        -0.066445         2.458285
 C         1.810644        -1.323569         2.748842
 O         2.665254        -1.637120         1.704254
 C         1.865896        -1.411750         0.415241
 H         3.142913         1.166362         0.989768
 H         3.244457         1.096580        -0.918998
 H         2.037289         2.124487        -0.134630
 H        -0.126222         0.356724        -1.428585
 H         0.984524        -1.041491        -1.731942
 H        -0.472521        -2.121942         0.479429
 H         0.015239         1.048834         1.198790
 H         2.286761        -1.335079         3.734021
 H         0.986957        -2.121035         2.804794
 H         2.436072        -1.980215        -0.286781
