19
Iteration:  1808
 C         2.809793         1.081795        -0.303823
 C         1.612623         0.173307         0.080399
 C         0.483835        -0.284044        -0.821756
 C         0.490756        -1.346891         0.353779
 C         0.587013         0.025756         1.210663
 O         1.001585        -0.084471         2.631169
 C         1.738847        -1.325839         2.712621
 O         2.614074        -1.572639         1.640911
 C         2.040055        -1.272248         0.353909
 H         3.448749         1.031328         0.573462
 H         3.388995         0.655289        -1.090582
 H         2.762629         2.142835        -0.599888
 H        -0.391581         0.360028        -0.904109
 H         0.749581        -0.616791        -1.843489
 H        -0.187226        -2.111294         0.695318
 H        -0.151525         0.812752         1.194672
 H         2.259303        -1.268478         3.645345
 H         0.982531        -2.213952         2.843602
 H         2.564169        -1.880132        -0.399953
