19
Iteration:  1734
 C         2.695024         1.290493        -0.094645
 C         1.653766         0.143985         0.003439
 C         0.485206        -0.398943        -0.850910
 C         0.425227        -1.382787         0.367962
 C         0.646333         0.083598         1.124455
 O         1.275851         0.074873         2.487487
 C         1.710948        -1.302573         2.754371
 O         2.458161        -1.791919         1.643682
 C         2.029096        -1.364041         0.391418
 H         3.333129         1.314818         0.792550
 H         3.320956         1.262345        -0.994845
 H         2.239221         2.380799        -0.105319
 H        -0.352433         0.215186        -0.963165
 H         0.830358        -0.782762        -1.802917
 H        -0.105163        -2.407735         0.536044
 H        -0.233912         0.698670         1.227069
 H         2.346960        -1.228628         3.663776
 H         0.897492        -1.909406         2.965640
 H         2.668383        -1.893562        -0.282027
