19
Iteration:  4695
 C         2.864045         1.025066        -0.223364
 C         1.745571         0.055003         0.060159
 C         0.616001        -0.359582        -0.908402
 C         0.386741        -1.322529         0.381886
 C         0.580317         0.078177         1.268539
 O         0.895549        -0.028705         2.561158
 C         1.724423        -1.262732         2.727853
 O         2.632788        -1.452861         1.686664
 C         1.940713        -1.382765         0.368302
 H         3.451187         1.340869         0.651786
 H         3.555717         0.508688        -0.882038
 H         2.525510         1.978593        -0.624729
 H        -0.049203         0.334607        -1.277128
 H         1.067505        -0.964559        -1.724200
 H        -0.375323        -2.100314         0.433186
 H        -0.286838         0.684164         1.071079
 H         2.378062        -1.065975         3.530269
 H         0.939090        -2.064022         2.798736
 H         2.475335        -1.891110        -0.540199
