19
Iteration:  4210
 C         2.842764         1.145952        -0.218513
 C         1.718557         0.136671         0.034281
 C         0.574576        -0.379086        -0.919905
 C         0.463932        -1.362091         0.299628
 C         0.612814         0.109404         1.180138
 O         1.029664         0.010661         2.577756
 C         1.614134        -1.255708         2.740279
 O         2.610694        -1.614517         1.720294
 C         1.920936        -1.429650         0.420499
 H         3.343770         1.477846         0.743240
 H         3.623178         0.761621        -0.906200
 H         2.436740         2.115817        -0.526660
 H        -0.284839         0.329161        -1.059343
 H         0.922903        -0.932821        -1.754617
 H        -0.226600        -2.168970         0.466873
 H        -0.080526         0.911360         1.091368
 H         2.115049        -1.212985         3.649246
 H         0.908845        -2.119179         2.861486
 H         2.456283        -2.066727        -0.274756
