19
Iteration:  2006
 C         2.791434         1.076563        -0.312955
 C         1.620842         0.245321         0.076533
 C         0.558386        -0.317301        -0.840573
 C         0.434958        -1.252129         0.336604
 C         0.545633         0.003232         1.306504
 O         1.030682        -0.109410         2.585278
 C         1.736409        -1.317673         2.758897
 O         2.620981        -1.654807         1.633058
 C         1.992304        -1.259520         0.327027
 H         3.544955         1.230888         0.458655
 H         3.375822         0.604544        -1.111003
 H         2.573270         2.160084        -0.587739
 H        -0.295524         0.381206        -1.036216
 H         1.058469        -0.714490        -1.823540
 H        -0.349711        -2.036527         0.432929
 H        -0.284772         0.717256         1.486848
 H         2.461015        -1.154366         3.656950
 H         1.143190        -2.194919         3.032897
 H         2.615910        -1.891192        -0.331687
