19
Iteration:  4020
 C         2.855625         1.099158        -0.217566
 C         1.654715         0.117410         0.007731
 C         0.612958        -0.395709        -0.947020
 C         0.419564        -1.175857         0.389136
 C         0.517587         0.071839         1.204135
 O         0.886714        -0.050278         2.614135
 C         1.830672        -1.310702         2.739888
 O         2.623984        -1.573136         1.657572
 C         1.978794        -1.362156         0.407679
 H         3.283427         1.337415         0.743990
 H         3.593324         0.550593        -0.844872
 H         2.575323         2.091166        -0.659461
 H        -0.112641         0.287302        -1.206574
 H         1.108451        -0.907261        -1.848067
 H        -0.284246        -2.087908         0.428831
 H        -0.387401         0.742012         1.237365
 H         2.330619        -1.214858         3.771677
 H         1.175953        -2.197350         2.753736
 H         2.533980        -2.130818        -0.234769
