19
Iteration:  4203charge 0 multiplicity 1
 C         2.870519         1.176486        -0.216818
 C         1.700527         0.103654         0.075964
 C         0.609954        -0.353918        -0.915266
 C         0.438096        -1.370248         0.316440
 C         0.588585         0.097008         1.209300
 O         1.012533        -0.017580         2.557394
 C         1.685898        -1.260366         2.701376
 O         2.606765        -1.534777         1.735323
 C         1.916402        -1.472401         0.438489
 H         3.452328         1.265888         0.685161
 H         3.524667         0.564103        -0.921269
 H         2.538167         2.146826        -0.616748
 H        -0.199646         0.341381        -1.345554
 H         0.947351        -0.875038        -1.837848
 H        -0.503789        -1.984326         0.406722
 H        -0.344477         0.741354         1.191443
 H         2.242511        -1.208523         3.722226
 H         0.861255        -1.963225         2.497141
 H         2.288749        -2.211250        -0.276788
