19
Iteration:  1380
 C         2.605003         1.192568        -0.103190
 C         1.732335         0.014597         0.038441
 C         0.610304        -0.391475        -0.878946
 C         0.312228        -1.206464         0.357273
 C         0.672829         0.042325         1.200100
 O         1.094789        -0.008898         2.498451
 C         1.810237        -1.260368         2.730629
 O         2.665224        -1.573530         1.632942
 C         1.906937        -1.485840         0.388230
 H         3.502169         1.218137         0.558910
 H         2.858144         1.463628        -1.158043
 H         2.064862         2.049599         0.168879
 H        -0.270621         0.240798        -1.188198
 H         1.026287        -1.016096        -1.664025
 H        -0.592823        -1.882044         0.547024
 H        -0.001349         0.925982         1.070223
 H         2.429636        -1.226529         3.677328
 H         1.120660        -2.098758         2.927072
 H         2.344386        -2.202958        -0.340244
