19
Iteration:   387charge 0 multiplicity 1
 C         2.727026         1.257440        -0.433529
 C         1.683332         0.226952         0.025389
 C         0.569372        -0.338874        -0.878320
 C         0.393930        -1.250527         0.412225
 C         0.656747         0.025144         1.197308
 O         1.058118        -0.087378         2.561858
 C         1.760533        -1.292164         2.857311
 O         2.516309        -1.809284         1.704770
 C         2.031313        -1.344750         0.429422
 H         3.581887         1.312442         0.227001
 H         3.180142         0.930980        -1.411406
 H         2.343412         2.285040        -0.637873
 H        -0.322515         0.267603        -1.165460
 H         0.971571        -0.854793        -1.762850
 H        -0.455640        -1.957336         0.738006
 H        -0.106860         0.880465         1.232703
 H         2.445719        -0.953291         3.668173
 H         1.197881        -2.096842         3.365549
 H         2.537526        -1.857392        -0.339077
