19
Iteration:  4444
 C         2.670431         1.374264        -0.124202
 C         1.713713         0.163105        -0.058168
 C         0.698810        -0.543760        -0.947567
 C         0.405554        -1.298811         0.404978
 C         0.721794         0.072414         1.174468
 O         1.156040         0.102140         2.445608
 C         1.609992        -1.284714         2.711698
 O         2.513824        -1.718860         1.771916
 C         1.923585        -1.531714         0.460732
 H         3.135163         1.601217         0.884176
 H         3.475304         1.220292        -0.946975
 H         2.043969         2.280711        -0.389301
 H         0.032385         0.165804        -1.481970
 H         1.253988        -1.293584        -1.665767
 H        -0.376564        -1.917960         0.737707
 H         0.076773         0.954014         1.026214
 H         2.013016        -1.378247         3.688832
 H         0.725870        -1.921965         2.907559
 H         2.412252        -2.235704        -0.210836
