19
Iteration:   203charge 0 multiplicity 1
 C         2.791897         1.093277        -0.116090
 C         1.715527         0.062838         0.201033
 C         0.733008        -0.222425        -0.871205
 C         0.338866        -1.274396         0.294109
 C         0.428910        -0.063193         1.202686
 O         0.874692        -0.206152         2.508500
 C         2.245239        -0.765123         2.541878
 O         2.374876        -1.871864         1.700716
 C         1.836091        -1.462100         0.440572
 H         3.530309         1.209561         0.658176
 H         3.343843         0.946825        -1.112870
 H         2.219862         2.018955        -0.004925
 H         0.097504         0.705924        -0.899847
 H         1.125541        -0.628804        -1.787730
 H        -0.443085        -2.165766         0.259100
 H        -0.409439         0.604350         1.284785
 H         2.997555         0.091353         2.214558
 H         2.525167        -0.946081         3.552681
 H         2.357466        -2.021431        -0.328988
