19
Iteration:  1578charge 0 multiplicity 1
 C         2.618588         1.263998        -0.079870
 C         1.752517         0.108557        -0.041811
 C         0.521070        -0.576306        -0.877141
 C         0.320325        -1.183336         0.408469
 C         0.694743         0.142760         1.144472
 O         1.087967        -0.078055         2.524969
 C         1.764574        -1.313250         2.691791
 O         2.624450        -1.670343         1.637878
 C         2.019542        -1.325014         0.422608
 H         3.527982         1.173094         0.619288
 H         3.124810         1.449170        -1.033372
 H         2.097181         2.209621         0.099059
 H        -0.236207         0.113926        -1.221424
 H         0.907031        -1.153134        -1.666242
 H        -0.615338        -1.747057         0.846459
 H         0.218835         1.152868         1.232015
 H         2.412281        -1.356242         3.545588
 H         1.033298        -2.162135         2.751472
 H         2.272645        -2.100837        -0.310323
