19
Iteration:  4604charge 0 multiplicity 1
 C         2.644696         1.339207        -0.164540
 C         1.801742         0.087893         0.047790
 C         0.672822        -0.517084        -0.926415
 C         0.351565        -1.272819         0.320020
 C         0.644780         0.070508         1.067554
 O         1.181575         0.022900         2.448462
 C         1.659016        -1.165347         2.799845
 O         2.482630        -1.815412         1.729126
 C         2.012568        -1.387898         0.535149
 H         3.294984         1.392983         0.657131
 H         3.250658         1.142618        -1.015725
 H         2.078856         2.223690        -0.114080
 H        -0.208032         0.143108        -1.151612
 H         1.037571        -1.084765        -1.702548
 H        -0.668936        -1.801576         0.181689
 H        -0.217577         0.760393         1.093790
 H         2.372086        -0.996819         3.716637
 H         0.861660        -1.994677         3.022510
 H         2.564591        -1.946953        -0.188962
