19
Iteration:  3671
 C         2.785306         0.976501        -0.238978
 C         1.601548         0.146936         0.064445
 C         0.628596        -0.330855        -0.862855
 C         0.402178        -1.211293         0.316626
 C         0.495234        -0.012072         1.267052
 O         1.005093        -0.061531         2.582333
 C         1.702465        -1.262836         2.788818
 O         2.713260        -1.532430         1.596642
 C         1.959780        -1.324738         0.409456
 H         3.392189         1.481093         0.546397
 H         3.539512         0.300539        -0.743751
 H         2.615968         1.952386        -0.879219
 H        -0.115103         0.438400        -1.030736
 H         1.022575        -0.640893        -1.864711
 H        -0.267654        -2.127506         0.426326
 H        -0.181605         0.798480         1.321533
 H         2.416167        -1.259462         3.637424
 H         1.101448        -2.239385         2.662425
 H         2.510032        -1.958011        -0.375361
