19
Iteration:  3594
 C         2.613229         1.237977        -0.091057
 C         1.668823         0.168234         0.135707
 C         0.633702        -0.395549        -0.890929
 C         0.421692        -1.347802         0.334903
 C         0.631354         0.017286         1.124523
 O         1.334059         0.080925         2.493844
 C         1.618835        -1.234423         2.762667
 O         2.527063        -1.750099         1.686291
 C         1.871644        -1.421801         0.359200
 H         3.619111         1.315407         0.440771
 H         3.156108         1.218422        -1.135926
 H         2.165345         2.309658        -0.061979
 H        -0.112066         0.351425        -1.154298
 H         1.138726        -1.034600        -1.601993
 H        -0.233711        -2.260929         0.370590
 H        -0.181598         0.690847         1.023048
 H         2.449734        -1.229571         3.512763
 H         0.712737        -1.881681         2.855139
 H         2.433153        -2.043245        -0.452392
