19
Iteration:  4559
 C         2.841065         1.130678        -0.153869
 C         1.701907         0.031871         0.035078
 C         0.587363        -0.469071        -0.931920
 C         0.372133        -1.289684         0.287334
 C         0.565577         0.046506         1.166206
 O         1.040387         0.019141         2.507128
 C         1.661982        -1.237378         2.739256
 O         2.593730        -1.526265         1.747800
 C         2.012224        -1.410192         0.397765
 H         3.591938         1.229016         0.583620
 H         3.357658         1.043090        -1.100048
 H         2.322407         2.052580        -0.064085
 H        -0.067856         0.410770        -1.128290
 H         1.016678        -1.058486        -1.692591
 H        -0.516878        -1.952357         0.660025
 H        -0.119355         0.930977         1.224521
 H         2.230945        -1.255907         3.770376
 H         0.852944        -2.055818         2.925013
 H         2.710492        -1.844693        -0.244468
