19
Iteration:  3286
 C         2.745088         1.271209        -0.100226
 C         1.772876         0.150069         0.076856
 C         0.611841        -0.449263        -0.916071
 C         0.331758        -1.312711         0.369527
 C         0.619604         0.060596         1.166434
 O         1.142195        -0.031324         2.590877
 C         1.759555        -1.213601         2.738422
 O         2.545514        -1.675512         1.576170
 C         1.904169        -1.430010         0.373900
 H         3.283014         1.474541         0.893419
 H         3.400384         0.961610        -0.966289
 H         2.149797         2.096397        -0.470900
 H        -0.252689         0.332128        -1.004769
 H         0.928844        -0.757761        -1.898682
 H        -0.432995        -2.048659         0.617956
 H        -0.185627         0.788930         1.049928
 H         2.353059        -1.326365         3.639520
 H         0.996586        -1.974605         2.831775
 H         2.256429        -2.136718        -0.376622
