19
Iteration:  3978
 C         2.733199         1.071536        -0.127316
 C         1.691090         0.112889         0.007748
 C         0.589046        -0.335685        -0.942328
 C         0.420877        -1.286529         0.301440
 C         0.611237         0.059097         1.150470
 O         1.030694        -0.016899         2.558581
 C         1.722828        -1.319227         2.734573
 O         2.629080        -1.488709         1.709941
 C         1.970401        -1.430487         0.423420
 H         3.439826         0.840554         0.677753
 H         3.218404         0.894940        -1.089830
 H         2.403669         2.164540        -0.048227
 H        -0.215705         0.360711        -1.180921
 H         0.926456        -0.971587        -1.887617
 H        -0.425849        -2.024580         0.532565
 H        -0.240491         0.782951         1.131943
 H         2.353079        -1.240503         3.682628
 H         0.997344        -2.061645         3.100854
 H         2.557540        -2.090856        -0.298054
