19
Iteration:  4543
 C         2.843266         1.063434        -0.159913
 C         1.761812         0.106785         0.007625
 C         0.590576        -0.409199        -0.954846
 C         0.360035        -1.239063         0.427278
 C         0.602510         0.052871         1.134306
 O         0.944851        -0.057795         2.496306
 C         1.678401        -1.283838         2.721955
 O         2.698104        -1.439403         1.751322
 C         1.945539        -1.397830         0.469113
 H         3.529578         0.931166         0.751772
 H         3.430739         0.918736        -1.109904
 H         2.481687         2.133393        -0.317219
 H        -0.249222         0.249582        -1.204715
 H         0.743786        -0.981031        -1.962236
 H        -0.265732        -2.055295         0.455875
 H        -0.210361         0.764623         0.974065
 H         2.054729        -1.226690         3.701538
 H         0.991784        -2.181194         2.681579
 H         2.256369        -2.289247        -0.179944
