19
Iteration:   649charge 0 multiplicity 1
 C         2.649863         1.092904        -0.141216
 C         1.695856         0.047949         0.014161
 C         0.621419        -0.319682        -0.911956
 C         0.304477        -1.295831         0.321923
 C         0.606203         0.033621         1.188543
 O         1.100368         0.003151         2.582434
 C         1.955330        -1.132107         2.754216
 O         2.545361        -1.666677         1.659316
 C         1.885328        -1.430026         0.386900
 H         3.337226         0.985842         0.663884
 H         3.250846         1.076543        -1.127283
 H         2.154864         2.064323        -0.118771
 H        -0.098012         0.464176        -1.208357
 H         0.963998        -0.783268        -1.795884
 H        -0.416668        -1.899552         0.640025
 H        -0.240496         0.737933         1.191864
 H         2.731154        -1.015765         3.448856
 H         1.344256        -1.945703         2.986600
 H         2.450787        -2.015618        -0.404220
