19
Iteration:   970
 C         2.800526         1.213334        -0.240788
 C         1.648233         0.162516         0.016883
 C         0.461748        -0.425219        -0.833035
 C         0.426927        -1.382877         0.325906
 C         0.577991         0.088153         1.250479
 O         1.186292         0.054158         2.570984
 C         1.731797        -1.305859         2.674046
 O         2.630906        -1.654470         1.676712
 C         1.942815        -1.353168         0.419555
 H         3.485012         0.989308         0.668958
 H         3.387641         1.041991        -1.110193
 H         2.320319         2.212871        -0.062780
 H        -0.408227         0.145058        -1.051537
 H         0.833915        -0.756617        -1.810936
 H        -0.188744        -2.231777         0.417709
 H        -0.493580         0.500917         1.216073
 H         2.217006        -1.282156         3.684855
 H         0.790826        -1.931509         2.644780
 H         2.342475        -2.023211        -0.420244
