19
Iteration:  4546
 C         2.845362         1.085933        -0.150435
 C         1.793658         0.070390         0.013356
 C         0.567096        -0.408656        -0.966136
 C         0.350982        -1.240377         0.423777
 C         0.579578         0.048501         1.150747
 O         0.962977        -0.046638         2.487105
 C         1.688968        -1.293524         2.730753
 O         2.683836        -1.445559         1.771960
 C         1.953696        -1.395057         0.437058
 H         3.547082         0.952484         0.697137
 H         3.367849         0.907951        -1.082993
 H         2.462900         2.113575        -0.304920
 H        -0.217460         0.279066        -1.311174
 H         0.772412        -0.965088        -1.945464
 H        -0.330033        -2.123119         0.514238
 H        -0.238779         0.790722         0.937724
 H         2.128610        -1.155268         3.762061
 H         0.929408        -2.164457         2.594940
 H         2.313500        -2.141986        -0.176051
