19
Iteration:  4449charge 0 multiplicity 1
 C         2.705613         1.380847        -0.153293
 C         1.749124         0.156141        -0.051863
 C         0.708015        -0.545723        -0.937953
 C         0.369574        -1.288774         0.415325
 C         0.687961         0.085574         1.161768
 O         1.145954         0.099275         2.498841
 C         1.604642        -1.279903         2.695661
 O         2.504409        -1.709463         1.769164
 C         1.964794        -1.559009         0.455264
 H         3.057557         1.509157         0.848703
 H         3.483588         1.448345        -0.860538
 H         2.042734         2.176163        -0.455702
 H        -0.000376         0.121182        -1.443496
 H         1.099341        -1.146328        -1.741911
 H        -0.414193        -2.096719         0.662361
 H        -0.035317         0.896069         0.922844
 H         2.223400        -1.301917         3.654390
 H         0.709517        -1.910487         2.884631
 H         2.389141        -2.305088        -0.281686
