19
Iteration:  4685charge 0 multiplicity 1
 C         2.857588         1.031329        -0.242427
 C         1.696998         0.158853        -0.012237
 C         0.616025        -0.383163        -0.913047
 C         0.397073        -1.256621         0.409915
 C         0.569183        -0.019454         1.171453
 O         0.947050        -0.014867         2.605902
 C         1.688174        -1.285377         2.741526
 O         2.619783        -1.490284         1.700479
 C         1.983680        -1.308033         0.378452
 H         3.213678         1.119216         0.821049
 H         3.673490         0.493275        -0.750096
 H         2.805091         1.984278        -0.794268
 H        -0.106014         0.325919        -1.142611
 H         0.805282        -1.068202        -1.791594
 H        -0.211678        -2.117655         0.412140
 H        -0.301728         0.639361         1.158003
 H         2.237420        -1.080258         3.642853
 H         1.033916        -2.234368         2.893120
 H         2.505455        -2.200044        -0.257185
