19
Iteration:  4200charge 0 multiplicity 1
 C         2.868952         1.164694        -0.210442
 C         1.696345         0.097597         0.089560
 C         0.635351        -0.362856        -0.920827
 C         0.385345        -1.336132         0.333747
 C         0.575812         0.078317         1.217580
 O         1.005154        -0.023529         2.540366
 C         1.712639        -1.267373         2.700980
 O         2.604393        -1.502811         1.726638
 C         1.938977        -1.480137         0.443023
 H         3.514985         1.188515         0.705042
 H         3.480525         0.580476        -0.957994
 H         2.578228         2.111029        -0.681218
 H        -0.172923         0.337482        -1.344948
 H         0.980984        -0.799006        -1.801063
 H        -0.498903        -1.940060         0.382486
 H        -0.332277         0.615990         1.208057
 H         2.194930        -1.265483         3.639457
 H         0.869151        -1.914118         2.470827
 H         2.306208        -2.199509        -0.233960
