19
Iteration:  3455
 C         2.665561         1.206421        -0.122906
 C         1.678836         0.042196         0.021846
 C         0.620208        -0.339972        -0.927353
 C         0.351734        -1.195602         0.401743
 C         0.663029         0.066503         1.169658
 O         1.148717        -0.035178         2.506041
 C         1.738947        -1.306999         2.766717
 O         2.636176        -1.618624         1.654346
 C         1.917799        -1.456601         0.406729
 H         3.082844         1.229857         0.862691
 H         3.400033         0.808038        -0.796278
 H         2.034078         2.118367        -0.357765
 H        -0.173012         0.390544        -1.096165
 H         0.965724        -0.994992        -1.829040
 H        -0.602600        -1.809702         0.285537
 H        -0.093251         0.974057         1.277594
 H         2.399324        -1.172465         3.646980
 H         0.996797        -2.153846         2.791148
 H         2.240425        -2.103097        -0.454118
