19
Iteration:   237charge 0 multiplicity 1
 C         2.736093         1.169305        -0.247385
 C         1.720397         0.133298         0.040315
 C         0.624754        -0.374817        -0.981966
 C         0.449871        -1.227855         0.356391
 C         0.641218         0.125121         1.219927
 O         0.851671        -0.263801         2.592673
 C         2.157205        -0.990057         2.777903
 O         2.318718        -1.842817         1.710804
 C         1.893424        -1.379031         0.397388
 H         3.376134         1.077183         0.605405
 H         3.358749         1.311542        -1.199550
 H         2.274452         2.123057        -0.073921
 H        -0.157039         0.397311        -1.253194
 H         0.925955        -0.822323        -1.891121
 H        -0.246019        -2.040838         0.526989
 H        -0.081135         0.880157         1.155774
 H         2.964132        -0.201624         2.665439
 H         2.176118        -1.553262         3.737990
 H         2.420349        -1.940039        -0.381137
