19
Iteration:  3336
 C         2.923903         1.135054        -0.215892
 C         1.693710         0.161243         0.054452
 C         0.444911        -0.392571        -0.852146
 C         0.321804        -1.268995         0.410550
 C         0.649211         0.045959         1.263525
 O         0.992463        -0.128576         2.587148
 C         1.757050        -1.310738         2.682768
 O         2.613163        -1.503980         1.619682
 C         1.962628        -1.349417         0.349987
 H         3.384960         1.137590         0.752220
 H         3.609664         0.633212        -0.940570
 H         2.558179         2.192291        -0.469677
 H        -0.185478         0.372677        -1.207610
 H         1.022155        -0.978759        -1.610973
 H        -0.515435        -2.024819         0.400673
 H        -0.108514         0.814543         1.018059
 H         2.400727        -1.211150         3.596573
 H         0.961439        -2.180317         2.798901
 H         2.572822        -1.860449        -0.467868
