19
Iteration:  4011charge 0 multiplicity 1
 C         2.899898         1.085693        -0.188059
 C         1.738037         0.183115        -0.004753
 C         0.605987        -0.451437        -0.887913
 C         0.399923        -1.226500         0.364631
 C         0.459200         0.138122         1.199808
 O         0.865754        -0.064940         2.612525
 C         1.795108        -1.359387         2.712565
 O         2.692167        -1.558522         1.644437
 C         1.916237        -1.355288         0.458174
 H         3.466027         1.265176         0.740753
 H         3.646133         0.803515        -0.926695
 H         2.540075         2.094790        -0.613752
 H        -0.178112         0.243368        -1.188397
 H         0.899213        -1.109131        -1.851317
 H        -0.229094        -2.162049         0.608389
 H        -0.387072         0.803443         0.915462
 H         2.629074        -1.065782         3.415537
 H         1.009628        -2.151565         2.892647
 H         2.332968        -1.897207        -0.456432
