19
Iteration:  2008
 C         2.796636         1.089158        -0.309651
 C         1.606770         0.238855         0.075267
 C         0.566240        -0.330451        -0.831489
 C         0.443841        -1.246429         0.324667
 C         0.547971         0.008036         1.303090
 O         1.024735        -0.109693         2.589029
 C         1.744296        -1.304076         2.747440
 O         2.614802        -1.671038         1.631657
 C         2.004876        -1.253657         0.328629
 H         3.500480         1.216727         0.505547
 H         3.337051         0.602261        -1.147252
 H         2.607068         2.126066        -0.602396
 H        -0.299408         0.352387        -0.990107
 H         1.002399        -0.718175        -1.795703
 H        -0.405350        -2.002212         0.456547
 H        -0.267050         0.714227         1.504357
 H         2.440638        -1.177920         3.639776
 H         1.143073        -2.161980         3.049516
 H         2.610826        -1.860138        -0.311659
