19
Iteration:  1766
 C         2.679588         1.327446        -0.190611
 C         1.749766         0.072753         0.100524
 C         0.671464        -0.406660        -0.913234
 C         0.192693        -1.173445         0.398481
 C         0.599313         0.091289         1.134050
 O         1.145594        -0.057543         2.566392
 C         1.796172        -1.333760         2.731857
 O         2.653692        -1.650741         1.618745
 C         1.877372        -1.512342         0.468284
 H         3.463253         1.367104         0.518262
 H         3.066518         1.208424        -1.195721
 H         1.877490         2.172217        -0.204698
 H         0.078913         0.343487        -1.340181
 H         1.182436        -0.925454        -1.727802
 H        -0.649713        -1.927202         0.364372
 H        -0.107291         0.931133         1.148482
 H         2.510687        -1.331135         3.581964
 H         1.068445        -2.136675         2.888723
 H         2.362271        -2.138221        -0.249592
