19
Iteration:   576
 C         2.720695         1.233697        -0.273568
 C         1.663910         0.121886         0.060732
 C         0.549843        -0.349264        -0.895020
 C         0.354709        -1.338949         0.366648
 C         0.649671         0.004183         1.223808
 O         1.175622         0.005071         2.535354
 C         1.721192        -1.297843         2.748177
 O         2.594352        -1.618711         1.723017
 C         1.971913        -1.410012         0.433374
 H         3.524500         1.357445         0.462297
 H         3.208270         0.929543        -1.215734
 H         2.320864         2.200345        -0.546976
 H        -0.437841         0.237513        -0.843064
 H         0.737081        -0.724529        -1.923200
 H        -0.503536        -2.163987         0.344285
 H         0.016712         0.886809         1.052666
 H         2.322574        -1.366659         3.716948
 H         0.932998        -2.100428         2.650248
 H         2.415389        -1.984210        -0.299195
