19
Iteration:  4036charge 0 multiplicity 1
 C         2.763303         1.100497        -0.208298
 C         1.698230         0.128085         0.095286
 C         0.640023        -0.338391        -0.910578
 C         0.365851        -1.305772         0.302408
 C         0.645858         0.006745         1.186843
 O         1.059118        -0.108800         2.531961
 C         1.646398        -1.258396         2.802428
 O         2.602945        -1.530918         1.696086
 C         1.955141        -1.349471         0.406645
 H         3.298209         1.547212         0.686688
 H         3.546579         0.642937        -0.809316
 H         2.382893         1.923397        -0.803748
 H        -0.245561         0.399824        -1.233218
 H         0.958189        -0.866971        -1.788118
 H        -0.394896        -2.014367         0.520929
 H        -0.062383         0.796433         1.094188
 H         2.376853        -1.041441         3.511962
 H         0.906766        -2.105723         2.938299
 H         2.495760        -1.829058        -0.364184
