19
Iteration:  2900charge 0 multiplicity 1
 C         2.632345         1.335033        -0.137316
 C         1.703904         0.063365         0.007937
 C         0.588056        -0.490600        -0.976670
 C         0.422348        -1.143227         0.386895
 C         0.736243         0.085889         1.178408
 O         1.177132        -0.012821         2.584504
 C         1.663598        -1.384674         2.768658
 O         2.555542        -1.669895         1.653743
 C         1.956601        -1.435979         0.353737
 H         3.125628         1.542851         0.814935
 H         3.379868         1.147440        -0.843098
 H         2.069145         2.290461        -0.361036
 H        -0.157151         0.145193        -1.337522
 H         1.142500        -1.132405        -1.719602
 H        -0.362922        -1.756436         0.686677
 H        -0.087175         0.874962         1.223065
 H         2.108837        -1.458719         3.740369
 H         0.665681        -1.938708         2.820081
 H         2.396707        -2.134108        -0.323068
