19
Iteration:  2120
 C         2.723545         1.162385        -0.216446
 C         1.651143         0.162825         0.022857
 C         0.497673        -0.331855        -0.882266
 C         0.402451        -1.245156         0.260202
 C         0.658691         0.046605         1.274417
 O         1.088321        -0.095241         2.577895
 C         1.770174        -1.268975         2.763427
 O         2.582958        -1.699128         1.649090
 C         2.010047        -1.309523         0.415693
 H         3.293872         1.338235         0.732751
 H         3.462866         0.710778        -0.902003
 H         2.278979         2.085693        -0.507029
 H        -0.339180         0.378952        -1.166159
 H         0.866151        -0.880469        -1.720068
 H        -0.295660        -2.120316         0.313014
 H        -0.125652         0.785305         1.227793
 H         2.449017        -1.201175         3.598836
 H         1.042606        -2.152442         2.997733
 H         2.495992        -1.814036        -0.365410
