19
Iteration:  4273
 C         2.566589         1.283361        -0.147928
 C         1.742089         0.053681         0.077234
 C         0.786227        -0.454653        -0.999331
 C         0.331014        -1.234156         0.247522
 C         0.680320         0.084242         1.151264
 O         1.262515         0.101849         2.543148
 C         1.643770        -1.242575         2.758638
 O         2.452337        -1.763613         1.744141
 C         1.940444        -1.505767         0.488445
 H         3.078671         1.602650         0.793269
 H         3.241096         1.213838        -0.954897
 H         1.781125         2.069440        -0.290058
 H         0.193660         0.251238        -1.513548
 H         1.206306        -1.222011        -1.741215
 H        -0.412544        -2.003593         0.435838
 H        -0.023492         0.945476         1.105841
 H         2.332688        -1.158396         3.549187
 H         0.758087        -1.855675         2.940505
 H         2.559057        -2.050745        -0.333421
