19
Iteration:  3572
 C         2.627475         1.307819        -0.209035
 C         1.699870         0.143342         0.039241
 C         0.588290        -0.447767        -0.952230
 C         0.450913        -1.254865         0.363946
 C         0.609060         0.090374         1.203069
 O         1.244063         0.003018         2.474133
 C         1.687669        -1.270363         2.748872
 O         2.470503        -1.827118         1.704142
 C         2.010178        -1.344143         0.461323
 H         3.476458         1.021747         0.514628
 H         3.325610         1.432011        -1.076984
 H         2.258937         2.307843         0.175788
 H        -0.299236         0.186924        -0.963542
 H         0.950798        -0.933777        -1.843890
 H        -0.381843        -1.980997         0.469827
 H        -0.201787         0.781889         1.244541
 H         2.418486        -1.269967         3.575184
 H         0.820865        -1.912517         2.794666
 H         2.553460        -2.127127        -0.113726
