19
Iteration:  1221charge 0 multiplicity 1
 C         2.762227         1.231954        -0.142886
 C         1.622482         0.075815        -0.005880
 C         0.467499        -0.473197        -0.932771
 C         0.337558        -1.298726         0.397046
 C         0.615904         0.056582         1.192994
 O         1.165405        -0.009618         2.544451
 C         1.740132        -1.287923         2.714148
 O         2.660330        -1.609500         1.676963
 C         2.031480        -1.338825         0.405544
 H         3.389846         1.187866         0.763691
 H         3.311723         1.264715        -1.051379
 H         2.265197         2.230798         0.007548
 H        -0.316250         0.246100        -0.991818
 H         0.604106        -0.965425        -1.943229
 H        -0.312422        -2.093956         0.503211
 H        -0.143573         0.870458         1.150227
 H         2.248214        -1.350800         3.652104
 H         0.908464        -2.037422         2.769489
 H         2.347811        -2.017159        -0.446496
