19
Iteration:   807charge 0 multiplicity 1
 C         2.661790         1.139121        -0.173462
 C         1.693074         0.028610         0.108768
 C         0.580694        -0.405215        -0.906245
 C         0.242341        -1.172577         0.334621
 C         0.570037         0.153387         1.154397
 O         1.086038        -0.043732         2.551129
 C         1.893756        -1.258463         2.734728
 O         2.702195        -1.677543         1.680455
 C         1.958312        -1.445231         0.422741
 H         3.614367         1.214679         0.429950
 H         2.918780         1.106973        -1.203277
 H         2.079312         2.096920        -0.159127
 H         0.014133         0.482081        -1.226285
 H         0.967727        -0.879482        -1.896848
 H        -0.595158        -1.984488         0.418065
 H        -0.102841         1.053268         1.187760
 H         2.451562        -1.032324         3.695300
 H         1.052560        -1.949173         2.836206
 H         2.227219        -2.032915        -0.394098
