19
Iteration:  1385charge 0 multiplicity 1
 C         2.599736         1.202550        -0.124161
 C         1.763718        -0.005283         0.070523
 C         0.644654        -0.432230        -0.865383
 C         0.275300        -1.178943         0.366267
 C         0.675413         0.047813         1.157485
 O         1.126098        -0.052936         2.481548
 C         1.819831        -1.272666         2.747711
 O         2.622684        -1.540346         1.637393
 C         1.877667        -1.475449         0.392586
 H         3.479589         1.220366         0.518428
 H         2.859450         1.457963        -1.139798
 H         2.001169         2.134292         0.245610
 H        -0.196338         0.225162        -1.039069
 H         0.974259        -0.861186        -1.887510
 H        -0.469766        -1.954975         0.502325
 H        -0.030290         0.873816         1.224504
 H         2.536416        -1.159840         3.538914
 H         0.974671        -1.965163         2.984734
 H         2.453667        -2.093422        -0.300386
