19
Iteration:  2901charge 0 multiplicity 1
 C         2.637006         1.342306        -0.129646
 C         1.693811         0.055221         0.008167
 C         0.593610        -0.493711        -0.979289
 C         0.423368        -1.136934         0.392519
 C         0.738286         0.082877         1.172275
 O         1.179577        -0.003433         2.585848
 C         1.660109        -1.394790         2.773986
 O         2.550571        -1.667540         1.651030
 C         1.966763        -1.440561         0.350015
 H         3.096743         1.514023         0.814820
 H         3.383095         1.147683        -0.881320
 H         2.068518         2.284126        -0.355298
 H        -0.174401         0.122144        -1.335957
 H         1.120164        -1.101021        -1.727463
 H        -0.380766        -1.748002         0.681912
 H        -0.114738         0.869828         1.223171
 H         2.128268        -1.456571         3.725591
 H         0.679143        -1.924730         2.838056
 H         2.397696        -2.129821        -0.336993
