19
Iteration:   401charge 0 multiplicity 1
 C         2.700747         1.201018        -0.401965
 C         1.772257         0.129514         0.144968
 C         0.566817        -0.411023        -0.827545
 C         0.498210        -1.228407         0.338789
 C         0.614807         0.111550         1.249041
 O         1.047811        -0.084981         2.559534
 C         1.808793        -1.223850         2.775416
 O         2.433997        -1.746473         1.667950
 C         1.990534        -1.327074         0.424732
 H         3.597810         1.245464         0.173802
 H         2.918990         0.897830        -1.483016
 H         2.244459         2.154887        -0.467125
 H        -0.181128         0.439377        -0.873907
 H         0.717881        -0.872429        -1.767373
 H        -0.136741        -2.220730         0.356176
 H        -0.224600         0.777487         1.144940
 H         2.641432        -1.178130         3.512652
 H         1.111112        -2.030206         3.086332
 H         2.606042        -1.916467        -0.262067
