19
Iteration:   246
 C         2.698163         1.199743        -0.208722
 C         1.777692         0.053262        -0.061549
 C         0.646459        -0.357872        -0.946432
 C         0.377558        -1.155908         0.361660
 C         0.583013         0.097407         1.171051
 O         0.923228        -0.276459         2.583019
 C         2.115151        -0.965512         2.803526
 O         2.352988        -1.861568         1.666894
 C         1.952778        -1.352342         0.436439
 H         3.444965         1.100108         0.558728
 H         3.258300         1.164261        -1.158145
 H         2.158893         2.137681        -0.191369
 H        -0.096784         0.466192        -1.118143
 H         0.783161        -0.948755        -1.849713
 H        -0.365430        -1.946197         0.811351
 H        -0.180097         0.879879         1.160839
 H         2.869727        -0.289269         3.241520
 H         1.897398        -1.585230         3.624738
 H         2.421447        -1.997424        -0.258242
