19
Iteration:  3551
 C         2.717564         1.300108        -0.185631
 C         1.729678         0.106199         0.025778
 C         0.590263        -0.370138        -0.944346
 C         0.381247        -1.236778         0.459432
 C         0.694956         0.116927         1.163437
 O         1.070499        -0.032804         2.489200
 C         1.709220        -1.333086         2.806455
 O         2.592577        -1.734406         1.664388
 C         1.933417        -1.432362         0.388165
 H         3.624484         1.387786         0.446303
 H         3.063287         1.111069        -1.192077
 H         2.009423         2.177361        -0.089909
 H        -0.221302         0.297912        -1.225144
 H         0.963695        -1.000639        -1.784822
 H        -0.438317        -1.943272         0.761457
 H        -0.069018         0.900520         1.250737
 H         2.350303        -1.255635         3.707904
 H         0.947420        -2.065236         2.787705
 H         2.521348        -2.130723        -0.186197
