19
Iteration:  2370charge 0 multiplicity 1
 C         2.713675         1.205028        -0.209984
 C         1.697028         0.201054         0.045104
 C         0.579962        -0.250035        -0.969449
 C         0.414095        -1.285704         0.342387
 C         0.564741        -0.027730         1.229688
 O         1.162185        -0.093136         2.510590
 C         1.719352        -1.284607         2.843913
 O         2.577694        -1.663098         1.705455
 C         1.963274        -1.421839         0.393305
 H         3.654775         1.289117         0.392972
 H         3.086059         1.146886        -1.309450
 H         2.225010         2.201000        -0.320709
 H        -0.295674         0.478015        -1.201028
 H         0.855718        -0.772517        -1.850289
 H        -0.324382        -2.205882         0.438472
 H        -0.294864         0.687136         1.280482
 H         2.345915        -1.220846         3.805945
 H         1.030059        -2.155406         3.114233
 H         2.491494        -1.967369        -0.409352
