19
Iteration:   215
 C         2.809677         1.222187        -0.141704
 C         1.751213         0.114248         0.210123
 C         0.680164        -0.300615        -0.870323
 C         0.342312        -1.262423         0.280922
 C         0.457119        -0.055750         1.204393
 O         0.915825        -0.221246         2.564779
 C         2.160453        -0.759607         2.627103
 O         2.341590        -1.915926         1.674517
 C         1.910567        -1.477030         0.424120
 H         3.705925         1.161054         0.446928
 H         3.119223         0.877902        -1.224172
 H         2.520634         2.244340        -0.336926
 H        -0.102309         0.461508        -1.205520
 H         0.922466        -0.780001        -1.783803
 H        -0.540906        -1.954349         0.314135
 H        -0.332539         0.630255         1.112905
 H         2.987737        -0.001305         2.329743
 H         2.244247        -1.230882         3.616796
 H         2.433962        -1.990779        -0.408923
