19
Iteration:  1633
 C         2.767952         1.046949        -0.289131
 C         1.638162         0.198824         0.120189
 C         0.454317        -0.254009        -0.813527
 C         0.538036        -1.329076         0.367032
 C         0.628210         0.030049         1.195766
 O         0.976758        -0.115456         2.558110
 C         1.760887        -1.282891         2.758318
 O         2.594991        -1.613336         1.647322
 C         2.021037        -1.307244         0.339503
 H         3.662598         1.168141         0.411083
 H         3.193875         0.657684        -1.228423
 H         2.459494         2.129139        -0.490258
 H        -0.289786         0.522121        -0.942855
 H         0.742399        -0.773088        -1.694205
 H        -0.244272        -2.199223         0.561557
 H        -0.135912         0.823890         1.308120
 H         2.448172        -1.029832         3.533253
 H         1.097294        -2.071591         3.073755
 H         2.644440        -1.782742        -0.460271
