19
Iteration:   905charge 0 multiplicity 1
 C         2.670276         1.266340        -0.253830
 C         1.714029         0.127222        -0.011271
 C         0.527117        -0.476864        -0.904908
 C         0.252233        -1.176686         0.393000
 C         0.732210         0.104384         1.167094
 O         1.041308        -0.057337         2.677532
 C         1.786110        -1.289459         2.775949
 O         2.609446        -1.704721         1.624230
 C         2.077473        -1.425840         0.382288
 H         3.078509         1.484773         0.799343
 H         3.480895         1.022043        -0.904695
 H         2.174730         2.177779        -0.755089
 H        -0.025559         0.322357        -1.378743
 H         1.018216        -1.135493        -1.741014
 H        -0.638349        -1.786688         0.747160
 H        -0.123916         0.865826         1.216528
 H         2.506196        -1.030942         3.605376
 H         1.028898        -2.100180         2.899236
 H         2.410356        -2.162662        -0.398380
