19
Iteration:  3497charge 0 multiplicity 1
 C         2.881386         1.050616        -0.216055
 C         1.662400         0.258742        -0.020265
 C         0.487045        -0.343902        -0.805425
 C         0.449031        -1.235769         0.403714
 C         0.495387         0.021443         1.198117
 O         1.050468        -0.122267         2.528787
 C         1.716972        -1.298776         2.732097
 O         2.642995        -1.574375         1.618385
 C         1.969623        -1.291020         0.410342
 H         3.363348         1.209636         0.774998
 H         3.556874         0.504744        -0.849774
 H         2.865415         2.051709        -0.775558
 H        -0.376824         0.339133        -0.861811
 H         0.775238        -0.994553        -1.698619
 H        -0.278770        -2.071308         0.564806
 H        -0.459895         0.640590         1.293985
 H         2.346308        -1.267893         3.668232
 H         1.032407        -2.239554         2.828446
 H         2.570958        -1.938200        -0.238596
