19
Iteration:  1403charge 0 multiplicity 1
 C         2.666294         1.276924        -0.173423
 C         1.693107         0.100722         0.024050
 C         0.580053        -0.370174        -0.962821
 C         0.390387        -1.321718         0.367727
 C         0.606651         0.044767         1.177279
 O         1.157020        -0.048521         2.506669
 C         1.817329        -1.268815         2.796465
 O         2.556757        -1.681370         1.665070
 C         1.915937        -1.386628         0.459277
 H         3.611116         1.222591         0.445471
 H         2.889984         1.361972        -1.242696
 H         2.253802         2.251133         0.017114
 H        -0.101602         0.515866        -1.237884
 H         0.859211        -1.014722        -1.802091
 H        -0.457635        -2.070560         0.609727
 H        -0.112118         0.866788         1.158198
 H         2.488178        -1.086731         3.675165
 H         1.232683        -2.149382         3.092979
 H         2.314707        -2.107031        -0.233373
