19
Iteration:  2622charge 0 multiplicity 1
 C         2.784209         1.242764        -0.070908
 C         1.747652         0.133148         0.045723
 C         0.594673        -0.425000        -0.852939
 C         0.298727        -1.238299         0.437591
 C         0.672689         0.045628         1.101192
 O         0.999636        -0.097139         2.481196
 C         1.781083        -1.213724         2.749177
 O         2.647390        -1.694194         1.601934
 C         1.879888        -1.405378         0.355079
 H         3.459125         1.305066         0.842472
 H         3.385682         1.411405        -0.946103
 H         2.241189         2.182371        -0.039959
 H        -0.260693         0.237715        -1.167734
 H         0.896853        -1.018158        -1.659146
 H        -0.582713        -1.947478         0.579967
 H        -0.043411         0.980116         1.194070
 H         2.429540        -0.935203         3.539553
 H         1.192520        -2.055867         3.073016
 H         2.257322        -2.158110        -0.436931
