19
Iteration:   593
 C         2.700144         1.126675        -0.186202
 C         1.695096         0.092695         0.037941
 C         0.478157        -0.431434        -0.807884
 C         0.497282        -1.298545         0.406707
 C         0.651920         0.092023         1.229895
 O         1.190145         0.054045         2.519879
 C         1.605757        -1.295911         2.689146
 O         2.599389        -1.574246         1.601395
 C         1.967159        -1.399473         0.370935
 H         3.411900         1.044604         0.631072
 H         3.188013         1.009622        -1.199138
 H         2.177822         2.106563        -0.132878
 H        -0.160948         0.398556        -1.014845
 H         0.941702        -0.944242        -1.628136
 H        -0.111528        -2.054137         0.686755
 H        -0.306394         0.600322         1.386073
 H         2.156064        -1.348476         3.578567
 H         0.785990        -2.022411         2.706587
 H         2.577874        -2.076256        -0.349848
