19
Iteration:   684charge 0 multiplicity 1
 C         2.833538         1.209403        -0.225244
 C         1.670320         0.152177         0.031190
 C         0.480217        -0.384900        -0.841727
 C         0.392226        -1.270648         0.423003
 C         0.583166        -0.000385         1.158661
 O         1.069109        -0.079442         2.483892
 C         1.936390        -1.177578         2.737219
 O         2.482349        -1.751450         1.636254
 C         1.937125        -1.344002         0.425332
 H         3.331550         1.439802         0.740832
 H         3.601910         0.856958        -0.946643
 H         2.417584         2.157734        -0.531861
 H        -0.249869         0.470173        -0.919672
 H         0.835467        -0.845089        -1.736795
 H        -0.263222        -2.016258         0.824029
 H        -0.383061         0.559245         1.165751
 H         2.611688        -0.781827         3.545628
 H         1.286151        -1.837061         3.267733
 H         2.421670        -1.909266        -0.344334
