19
Iteration:  1525charge 0 multiplicity 1
 C         2.662680         1.138397        -0.154052
 C         1.657264         0.142403         0.065670
 C         0.500174        -0.339803        -0.944930
 C         0.444073        -1.323608         0.197067
 C         0.556657         0.052508         1.304951
 O         1.208171         0.042734         2.506531
 C         1.809536        -1.278274         2.847509
 O         2.574570        -1.747733         1.696312
 C         1.978062        -1.318650         0.349543
 H         3.084315         1.491131         0.779584
 H         3.308417         0.755491        -0.856160
 H         2.219506         2.028235        -0.662078
 H        -0.267091         0.376218        -1.176370
 H         0.778969        -0.850498        -1.901604
 H        -0.283150        -2.192612         0.504496
 H        -0.378086         0.563946         1.361235
 H         2.576021        -1.151370         3.582453
 H         0.919269        -2.031620         3.043781
 H         2.656062        -1.569042        -0.414819
