19
Iteration:    57
 C         2.673507         1.228667        -0.282024
 C         1.612884         0.172656         0.034931
 C         0.622522        -0.449544        -0.883847
 C         0.420034        -1.215917         0.470753
 C         0.694597         0.088180         1.172856
 O         1.227453        -0.038272         2.537872
 C         1.623529        -1.373216         2.714445
 O         2.619323        -1.592252         1.661683
 C         1.898303        -1.423127         0.445058
 H         3.274917         1.391296         0.649697
 H         3.309815         0.878891        -1.051370
 H         2.217291         2.220716        -0.565590
 H        -0.253075         0.038497        -1.264482
 H         1.130558        -1.079431        -1.666625
 H        -0.422750        -1.953848         0.817404
 H        -0.034463         0.908610         1.154067
 H         2.042426        -1.466313         3.777893
 H         0.780122        -2.081929         2.660854
 H         2.304484        -2.079309        -0.275547
