19
Iteration:  4633charge 0 multiplicity 1
 C         2.658532         1.220521        -0.195188
 C         1.773803         0.029205         0.011281
 C         0.728176        -0.401563        -1.010339
 C         0.432895        -1.284438         0.478298
 C         0.647196         0.118349         1.161903
 O         1.131553         0.055713         2.529926
 C         1.599625        -1.223859         2.697242
 O         2.541115        -1.680596         1.699957
 C         1.947520        -1.488454         0.468837
 H         3.012449         1.442643         0.869744
 H         3.553049         1.189201        -0.870179
 H         1.906335         2.070223        -0.502088
 H        -0.136004         0.261851        -1.303303
 H         1.170146        -0.982206        -1.919759
 H        -0.493105        -1.827984         0.515524
 H        -0.373713         0.553364         1.283839
 H         2.139816        -1.180443         3.662330
 H         0.940446        -1.987187         2.960559
 H         2.505475        -2.161430        -0.225192
