19
Iteration:  3721
 C         2.645092         1.277992        -0.220079
 C         1.751456         0.056739        -0.039759
 C         0.603074        -0.438249        -0.875084
 C         0.432413        -1.224589         0.381023
 C         0.704697         0.144871         1.192768
 O         1.090775         0.014316         2.566275
 C         1.694047        -1.325004         2.690844
 O         2.555251        -1.685085         1.689109
 C         1.935723        -1.451335         0.429363
 H         3.233584         1.336270         0.743046
 H         3.440301         1.363760        -0.997195
 H         2.210496         2.237108        -0.212576
 H        -0.237571         0.264561        -1.263693
 H         0.950076        -1.051151        -1.680994
 H        -0.320594        -1.943381         0.667289
 H        -0.147729         0.917243         1.270258
 H         2.217449        -1.517097         3.637947
 H         1.011821        -2.147605         2.660091
 H         2.543115        -2.195328        -0.126423
