19
Iteration:  1520charge 0 multiplicity 1
 C         2.727720         1.181588        -0.174210
 C         1.608543         0.202636         0.044404
 C         0.497422        -0.354600        -0.964948
 C         0.443213        -1.363236         0.249444
 C         0.557072         0.026550         1.273116
 O         1.172698         0.037205         2.546134
 C         1.828472        -1.299848         2.834782
 O         2.600808        -1.766244         1.702407
 C         1.941975        -1.291418         0.351007
 H         3.082161         1.558116         0.822239
 H         3.490620         0.691439        -0.910998
 H         2.252012         1.988678        -0.722789
 H        -0.309196         0.397621        -1.174737
 H         0.869025        -0.727825        -1.918775
 H        -0.254431        -2.095413         0.547442
 H        -0.387792         0.656073         1.231938
 H         2.557208        -1.203590         3.694896
 H         0.997948        -1.928949         3.081971
 H         2.511251        -1.876664        -0.494479
