19
Iteration:   323charge 0 multiplicity 1
 C         2.804700         1.155049        -0.049810
 C         1.613041         0.117203        -0.033465
 C         0.450452        -0.469515        -0.918342
 C         0.427802        -1.309249         0.458678
 C         0.593157         0.118549         1.146289
 O         1.210781         0.066870         2.513834
 C         1.718055        -1.303870         2.654551
 O         2.646586        -1.616591         1.625928
 C         1.908074        -1.388763         0.447248
 H         3.103064         1.293825         0.943853
 H         3.639738         0.722317        -0.642475
 H         2.486585         2.120472        -0.332927
 H        -0.419389         0.263529        -0.942159
 H         0.715793        -0.954695        -1.810879
 H        -0.303154        -2.249731         0.455307
 H        -0.171733         0.871539         1.029122
 H         2.357330        -1.071765         3.540531
 H         0.887847        -2.068121         2.735385
 H         2.243751        -2.142335        -0.183305
