19
Iteration:   777
 C         2.775504         1.232604        -0.269452
 C         1.679756         0.177261         0.023418
 C         0.515990        -0.423533        -0.827477
 C         0.414277        -1.301934         0.371445
 C         0.605368         0.017069         1.236359
 O         1.165329        -0.024873         2.556024
 C         1.771957        -1.213272         2.764533
 O         2.525198        -1.679921         1.656739
 C         1.941319        -1.384122         0.364360
 H         3.548531         1.225734         0.470327
 H         3.236510         0.964870        -1.226756
 H         2.390457         2.259773        -0.204445
 H        -0.213996         0.332878        -1.092200
 H         0.939668        -0.945347        -1.724667
 H        -0.242961        -2.245136         0.451506
 H        -0.254122         0.668290         1.269564
 H         2.316914        -1.240359         3.665795
 H         0.938850        -1.940032         2.971219
 H         2.277450        -2.034629        -0.446653
