19
Iteration:  4769charge 0 multiplicity 1
 C         2.649686         1.234107        -0.162643
 C         1.699903         0.150334         0.108840
 C         0.708843        -0.420128        -0.893393
 C         0.410750        -1.331568         0.406326
 C         0.615073         0.056651         1.137616
 O         1.208031         0.116565         2.411376
 C         1.623962        -1.207217         2.684860
 O         2.510604        -1.761430         1.769266
 C         2.011682        -1.501318         0.427292
 H         3.496557         1.207497         0.533847
 H         3.024994         1.339356        -1.187162
 H         2.106883         2.185266         0.094848
 H        -0.177933         0.261534        -1.256969
 H         1.084011        -0.924582        -1.792831
 H        -0.346057        -2.160025         0.532225
 H        -0.196789         0.764948         0.980906
 H         2.050102        -1.183954         3.725187
 H         0.689865        -1.923556         2.767078
 H         2.572107        -2.003521        -0.298249
