19
Iteration:  2328charge 0 multiplicity 1
 C         2.764720         1.149929        -0.226849
 C         1.706837         0.121018         0.033674
 C         0.510397        -0.427166        -0.901268
 C         0.418273        -1.173019         0.485082
 C         0.664828         0.092316         1.227288
 O         0.961191        -0.155466         2.582919
 C         1.683738        -1.416693         2.663230
 O         2.689264        -1.514523         1.627901
 C         1.974828        -1.294021         0.350515
 H         3.475568         1.389856         0.594587
 H         3.629957         0.806034        -0.855662
 H         2.499966         2.137593        -0.603862
 H        -0.337183         0.328172        -1.184164
 H         0.904627        -1.046853        -1.728250
 H        -0.274751        -1.945666         0.916345
 H        -0.009798         0.914706         1.379930
 H         2.144250        -1.263027         3.664580
 H         0.970430        -2.216628         2.717491
 H         2.338560        -1.994450        -0.360917
