19
Iteration:  4871
 C         2.888160         1.058372        -0.175592
 C         1.747814         0.073584        -0.029514
 C         0.551308        -0.401110        -0.919823
 C         0.378031        -1.282650         0.353100
 C         0.542811         0.038098         1.253552
 O         0.983341         0.002453         2.582474
 C         1.747160        -1.335850         2.707505
 O         2.585121        -1.450210         1.704552
 C         1.968379        -1.359594         0.383975
 H         3.190597         1.365200         0.849389
 H         3.732102         0.565919        -0.681131
 H         2.593048         1.901553        -0.797979
 H        -0.243132         0.310656        -1.234142
 H         1.060146        -1.017898        -1.833466
 H        -0.406884        -1.990342         0.559490
 H        -0.231410         0.798514         1.091004
 H         2.344615        -1.161511         3.592583
 H         0.858601        -2.104826         2.830699
 H         2.553349        -1.968862        -0.349289
