19
Iteration:  2372charge 0 multiplicity 1
 C         2.695968         1.205513        -0.204796
 C         1.698323         0.198651         0.030519
 C         0.563687        -0.247817        -0.951023
 C         0.433980        -1.293825         0.324575
 C         0.568089        -0.013253         1.205749
 O         1.172243        -0.092580         2.510338
 C         1.728666        -1.277727         2.860353
 O         2.557872        -1.676405         1.703496
 C         1.970445        -1.426162         0.398015
 H         3.635390         1.286765         0.351249
 H         3.116499         1.161122        -1.215841
 H         2.284855         2.182499        -0.249533
 H        -0.342728         0.437449        -1.168832
 H         0.852060        -0.780458        -1.876644
 H        -0.266454        -2.134367         0.421587
 H        -0.280868         0.636976         1.354348
 H         2.311066        -1.192619         3.764456
 H         1.006118        -2.095154         3.072976
 H         2.529361        -1.929493        -0.339511
