19
Iteration:  1362
 C         2.720259         1.211838        -0.127801
 C         1.652102         0.121050         0.014793
 C         0.513737        -0.448318        -0.964375
 C         0.394487        -1.289803         0.481242
 C         0.571975         0.092160         1.155286
 O         1.080962         0.006804         2.596031
 C         1.761309        -1.228206         2.677131
 O         2.698189        -1.677545         1.615607
 C         1.976537        -1.416497         0.404438
 H         3.435644         0.943979         0.691914
 H         3.238852         1.186074        -1.063080
 H         2.397601         2.300461         0.070740
 H        -0.195970         0.376963        -1.131801
 H         0.722391        -0.904599        -1.978332
 H        -0.198595        -2.214753         0.644966
 H        -0.268541         0.726956         1.266173
 H         2.407600        -1.228050         3.542821
 H         0.910983        -1.914603         2.711685
 H         2.436218        -2.029906        -0.335753
