19
Iteration:   748
 C         2.699530         1.165031        -0.202696
 C         1.700442         0.153050         0.000899
 C         0.385803        -0.462560        -0.866919
 C         0.451277        -1.245817         0.466807
 C         0.726173         0.115631         1.158869
 O         1.152565        -0.020559         2.507257
 C         1.678497        -1.309150         2.693721
 O         2.627222        -1.664091         1.679391
 C         1.980231        -1.330513         0.414986
 H         3.202250         1.355424         0.760864
 H         3.518747         0.839831        -0.939691
 H         2.245440         2.133447        -0.439649
 H        -0.345434         0.363693        -1.001077
 H         0.674140        -0.930884        -1.764299
 H        -0.153962        -1.994047         0.823704
 H        -0.122640         0.822618         1.147106
 H         2.175063        -1.457362         3.675747
 H         0.870888        -2.097538         2.622842
 H         2.435675        -2.089629        -0.366876
