19
Iteration:   588
 C         2.703015         1.158139        -0.234664
 C         1.700143         0.124712         0.080223
 C         0.493894        -0.400347        -0.786344
 C         0.474929        -1.323572         0.357879
 C         0.662847         0.074843         1.197689
 O         1.206171         0.012589         2.530922
 C         1.646550        -1.280381         2.678391
 O         2.582378        -1.559372         1.652329
 C         1.948146        -1.437179         0.364261
 H         3.444804         1.142734         0.620742
 H         3.199508         0.941630        -1.158789
 H         2.214335         2.140932        -0.184835
 H        -0.351305         0.313162        -1.026464
 H         0.936887        -0.896376        -1.721898
 H        -0.333784        -2.164172         0.641821
 H        -0.276167         0.648479         1.332071
 H         2.140801        -1.354749         3.713064
 H         0.739052        -1.926939         2.726651
 H         2.556740        -2.068314        -0.271659
