19
Iteration:  4503charge 0 multiplicity 1
 C         2.907834         1.086026        -0.232411
 C         1.699958         0.182861         0.032422
 C         0.657981        -0.434979        -0.935907
 C         0.437185        -1.262986         0.286294
 C         0.496924        -0.035762         1.194617
 O         0.968799        -0.021530         2.565367
 C         1.677791        -1.245091         2.821396
 O         2.615864        -1.562544         1.689262
 C         1.934379        -1.330100         0.482829
 H         3.567975         1.321271         0.588395
 H         3.455806         0.644379        -1.016310
 H         2.473668         2.007663        -0.628586
 H        -0.105537         0.319335        -1.162475
 H         0.877457        -1.052088        -1.840545
 H        -0.281911        -2.158535         0.452236
 H        -0.320224         0.742329         1.148095
 H         2.410298        -0.968149         3.619483
 H         0.908106        -2.006565         2.727776
 H         2.346559        -2.002679        -0.252748
