19
Iteration:  1626
 C         2.802288         1.077315        -0.312145
 C         1.652389         0.175908         0.172598
 C         0.487912        -0.266224        -0.813709
 C         0.447697        -1.354971         0.365413
 C         0.592694        -0.042348         1.229743
 O         0.987199        -0.019519         2.578965
 C         1.738299        -1.263073         2.750741
 O         2.645537        -1.635851         1.642063
 C         2.012069        -1.314714         0.319047
 H         3.660902         1.097819         0.301061
 H         3.220048         0.839381        -1.277233
 H         2.442422         2.119999        -0.422245
 H        -0.229031         0.549531        -0.849626
 H         0.690021        -0.707376        -1.835915
 H        -0.237659        -2.234667         0.364234
 H        -0.226962         0.654925         1.079471
 H         2.455997        -1.203374         3.617561
 H         1.070026        -2.192891         2.932517
 H         2.661229        -1.563420        -0.485262
