19
Iteration:  1792
 C         2.752425         1.174406        -0.247540
 C         1.717761         0.180043        -0.015354
 C         0.529165        -0.381452        -0.912130
 C         0.426016        -1.142874         0.459483
 C         0.666423         0.109242         1.201345
 O         0.987597        -0.182403         2.592930
 C         1.752287        -1.352285         2.782589
 O         2.618933        -1.577836         1.621454
 C         1.959919        -1.388495         0.392150
 H         3.519485         1.122256         0.575905
 H         3.244368         0.827713        -1.215951
 H         2.177663         2.069250        -0.361342
 H        -0.308984         0.340984        -1.138114
 H         0.876735        -0.993378        -1.758117
 H        -0.341660        -1.920462         0.637425
 H        -0.271770         0.737235         1.246082
 H         2.514976        -1.199982         3.589509
 H         1.149195        -2.201350         2.939456
 H         2.521083        -1.982373        -0.375381
