19
Iteration:  1997charge 0 multiplicity 1
 C         2.806341         1.104052        -0.313807
 C         1.701965         0.199546         0.112198
 C         0.532377        -0.225845        -0.921343
 C         0.389227        -1.271304         0.393228
 C         0.544362         0.008311         1.260532
 O         1.070570        -0.137870         2.593607
 C         1.766637        -1.390629         2.794822
 O         2.621576        -1.539609         1.639180
 C         1.923882        -1.332511         0.401826
 H         3.552923         1.180806         0.459954
 H         3.340328         0.612661        -1.154746
 H         2.365522         2.053808        -0.649101
 H        -0.277713         0.447763        -1.293432
 H         1.011702        -0.761902        -1.804831
 H        -0.092444        -2.323161         0.398355
 H        -0.322686         0.660336         1.072162
 H         2.444103        -1.138117         3.689935
 H         1.020240        -2.177678         2.815996
 H         2.338890        -1.793668        -0.484277
