19
Iteration:   694
 C         2.744157         1.165784        -0.244644
 C         1.633084         0.166376         0.009505
 C         0.536185        -0.389204        -0.909143
 C         0.385237        -1.250055         0.427823
 C         0.619814         0.054501         1.239405
 O         1.078935        -0.051229         2.496379
 C         1.858976        -1.252537         2.828891
 O         2.538914        -1.716030         1.616100
 C         1.949531        -1.352746         0.426704
 H         3.048223         1.253918         0.802536
 H         3.659487         0.840592        -0.865261
 H         2.454381         2.129476        -0.648404
 H        -0.279379         0.358819        -1.191105
 H         0.809978        -0.878953        -1.799415
 H        -0.416721        -1.875565         0.484082
 H        -0.222584         0.786722         1.291821
 H         2.820614        -0.924854         3.225857
 H         1.391598        -2.087620         3.297330
 H         2.553494        -2.018329        -0.246470
