19
Iteration:  3623
 C         2.711159         1.194439        -0.106863
 C         1.702235         0.081971         0.000447
 C         0.545703        -0.381288        -0.954870
 C         0.373956        -1.202965         0.448808
 C         0.661149         0.076579         1.121816
 O         1.085654        -0.025203         2.504340
 C         1.738023        -1.275646         2.739033
 O         2.643921        -1.692273         1.710103
 C         1.921483        -1.410000         0.364911
 H         3.280406         1.381452         0.857579
 H         3.473472         1.071679        -0.905166
 H         2.132382         2.053228        -0.192529
 H        -0.201479         0.446311        -1.274522
 H         0.779108        -1.060284        -1.760341
 H        -0.371911        -1.907300         0.686637
 H        -0.156371         0.813137         1.056797
 H         2.466759        -1.144748         3.532975
 H         0.957964        -2.062588         2.941832
 H         2.558455        -2.093493        -0.241567
