19
Iteration:  1881
 C         2.709405         1.441033        -0.064862
 C         1.792111         0.091844         0.041288
 C         0.529829        -0.481639        -0.967689
 C         0.293540        -1.235247         0.442985
 C         0.694782         0.013328         1.144682
 O         1.103478        -0.043739         2.491564
 C         1.847746        -1.236368         2.743424
 O         2.531153        -1.796292         1.622276
 C         1.898334        -1.433840         0.404578
 H         3.438718         1.701661         0.825959
 H         3.539971         1.391149        -0.901750
 H         2.206662         2.350070        -0.335253
 H        -0.227506         0.388225        -1.086762
 H         0.821948        -0.977789        -1.913034
 H        -0.479474        -1.971732         0.733872
 H        -0.200242         0.720210         1.188261
 H         2.569413        -1.011997         3.508636
 H         1.117972        -1.936961         3.124988
 H         2.303359        -2.115987        -0.408803
