19
Iteration:  3199
 C         2.820832         1.156321        -0.242031
 C         1.699899         0.151124         0.032903
 C         0.529210        -0.330849        -0.940062
 C         0.393053        -1.185649         0.369954
 C         0.595804         0.115618         1.211908
 O         1.003780        -0.098284         2.524353
 C         1.798653        -1.355958         2.730338
 O         2.618628        -1.709070         1.712581
 C         1.971972        -1.301117         0.418959
 H         3.538918         1.318064         0.606800
 H         3.392125         0.920746        -1.203453
 H         2.262647         2.059949        -0.378490
 H        -0.478027         0.233198        -0.839950
 H         0.632718        -0.961233        -1.784807
 H        -0.152379        -2.130755         0.503656
 H        -0.202654         0.925007         1.449659
 H         2.318642        -1.279608         3.721282
 H         0.933322        -2.158901         2.873088
 H         2.519073        -1.985266        -0.229961
