19
Iteration:   733charge 0 multiplicity 1
 C         2.683880         1.189572        -0.207599
 C         1.697547         0.050983         0.014792
 C         0.627475        -0.373146        -0.806022
 C         0.335687        -1.238165         0.483678
 C         0.587746         0.084608         1.251613
 O         1.195413        -0.014341         2.486784
 C         1.706122        -1.343179         2.657638
 O         2.634219        -1.561652         1.631630
 C         1.953203        -1.454348         0.390768
 H         3.145786         1.444439         0.743463
 H         3.471312         0.859055        -0.885374
 H         2.232958         2.105447        -0.651404
 H        -0.250952         0.206247        -0.972444
 H         0.809351        -1.091703        -1.663265
 H        -0.596412        -1.945061         0.477675
 H        -0.057466         0.951070         1.218644
 H         2.145921        -1.204864         3.601538
 H         0.819217        -2.015290         2.765191
 H         2.350220        -2.070591        -0.452636
