19
Iteration:  1117charge 0 multiplicity 1
 C         2.676735         1.277880        -0.180516
 C         1.726790         0.099339         0.027373
 C         0.570834        -0.422746        -0.884743
 C         0.345669        -1.232656         0.480857
 C         0.649667         0.092145         1.240815
 O         1.135174        -0.050076         2.528305
 C         1.766236        -1.281806         2.642466
 O         2.651560        -1.670372         1.674399
 C         1.940908        -1.415789         0.360354
 H         3.225280         1.643649         0.675725
 H         3.369539         0.925394        -1.017799
 H         2.028613         2.033966        -0.641450
 H        -0.405243         0.033274        -1.258289
 H         0.981604        -1.154267        -1.606145
 H        -0.636473        -1.854521         0.651752
 H        -0.151980         0.828622         1.285079
 H         2.242218        -1.218502         3.655215
 H         0.851556        -1.990909         2.655109
 H         2.230763        -2.098705        -0.384876
