19
Iteration:  3999charge 0 multiplicity 1
 C         2.933961         1.133579        -0.177002
 C         1.747145         0.131897         0.091969
 C         0.577258        -0.461862        -0.891280
 C         0.365628        -1.281948         0.444642
 C         0.554419         0.076289         1.178501
 O         0.887031        -0.122006         2.501887
 C         1.744788        -1.251384         2.700307
 O         2.667141        -1.537240         1.605376
 C         1.928312        -1.277077         0.407086
 H         3.525669         1.121305         0.734183
 H         3.521793         0.750099        -1.023120
 H         2.546039         2.190391        -0.304743
 H        -0.271607         0.115893        -1.137352
 H         0.898778        -1.184475        -1.774716
 H        -0.531069        -1.979509         0.593394
 H        -0.141503         0.941080         1.299870
 H         2.209037        -1.028643         3.717887
 H         1.173168        -2.196180         2.964973
 H         2.415710        -1.994889        -0.346818
