19
Iteration:   481
 C         2.795476         1.100105        -0.020707
 C         1.686146         0.109348         0.023896
 C         0.451222        -0.436087        -0.905597
 C         0.362269        -1.323447         0.364208
 C         0.512597         0.003143         1.269474
 O         1.187253         0.110392         2.498804
 C         1.804089        -1.198048         2.689936
 O         2.630867        -1.634445         1.593046
 C         1.941088        -1.393058         0.381384
 H         3.291143         1.329504         0.991450
 H         3.616167         0.951665        -0.714470
 H         2.330613         2.060709        -0.392569
 H        -0.460411         0.121027        -1.042376
 H         0.787648        -0.971363        -1.865724
 H        -0.423415        -2.100381         0.445893
 H        -0.270513         0.746109         1.087287
 H         2.475410        -1.156011         3.587862
 H         0.909451        -1.916508         2.810898
 H         2.458600        -2.002595        -0.516423
