19
Iteration:   471
 C         2.751861         1.153236         0.023392
 C         1.622820         0.102102        -0.032538
 C         0.512265        -0.525981        -0.871916
 C         0.375750        -1.261031         0.420893
 C         0.626825         0.065717         1.214338
 O         1.178249         0.087926         2.547028
 C         1.721647        -1.194926         2.585940
 O         2.635393        -1.598509         1.566274
 C         1.967313        -1.408252         0.367483
 H         3.225840         0.974803         1.043366
 H         3.404425         0.775452        -0.733802
 H         2.510311         2.236228        -0.189462
 H        -0.259614         0.177776        -1.114932
 H         0.719675        -1.256310        -1.723734
 H        -0.428727        -1.887858         0.644930
 H        -0.340954         0.570874         1.364407
 H         2.423496        -1.237153         3.434695
 H         0.938422        -2.023152         2.754415
 H         2.287906        -2.303445        -0.296536
