19
Iteration:   565charge 0 multiplicity 1
 C         2.698714         1.235055        -0.331424
 C         1.709678         0.089831        -0.004380
 C         0.539396        -0.348836        -0.924415
 C         0.362737        -1.219914         0.360018
 C         0.573261         0.046140         1.220236
 O         1.101848        -0.023372         2.549098
 C         1.758060        -1.345747         2.824787
 O         2.665819        -1.718751         1.693972
 C         1.972168        -1.359099         0.475389
 H         3.387866         1.472761         0.479202
 H         3.290729         0.861453        -1.181742
 H         2.144144         2.119436        -0.614012
 H        -0.060430         0.593073        -1.083501
 H         0.817028        -0.802401        -1.885828
 H        -0.402844        -2.094969         0.519608
 H        -0.211790         0.804487         1.337074
 H         2.384599        -1.151129         3.736831
 H         0.979666        -2.106239         3.061080
 H         2.458205        -1.978717        -0.203984
