19
Iteration:  3575charge 0 multiplicity 1
 C         2.649820         1.318116        -0.196212
 C         1.683629         0.135917         0.041192
 C         0.597920        -0.428784        -0.954463
 C         0.455933        -1.268665         0.378295
 C         0.613485         0.062536         1.221218
 O         1.257034         0.020625         2.455014
 C         1.688698        -1.265198         2.759348
 O         2.450596        -1.818380         1.690463
 C         2.014971        -1.360075         0.447334
 H         3.443432         1.074798         0.492386
 H         3.229105         1.331553        -1.088616
 H         2.217016         2.288743         0.206726
 H        -0.294632         0.159973        -1.069616
 H         0.988579        -0.924246        -1.927749
 H        -0.407259        -1.999866         0.539021
 H        -0.286514         0.770113         1.341924
 H         2.376012        -1.292556         3.622446
 H         0.805583        -1.875892         2.764899
 H         2.591112        -2.080736        -0.079150
