19
Iteration:   577charge 0 multiplicity 1
 C         2.718741         1.225606        -0.273201
 C         1.664139         0.127566         0.070724
 C         0.547767        -0.348426        -0.881575
 C         0.361207        -1.344851         0.365672
 C         0.655549         0.007846         1.218690
 O         1.183622         0.000623         2.536489
 C         1.718021        -1.292403         2.736188
 O         2.585486        -1.607638         1.725202
 C         1.969836        -1.415863         0.425985
 H         3.542964         1.346058         0.483762
 H         3.209033         0.940906        -1.195922
 H         2.320225         2.220971        -0.518301
 H        -0.446180         0.189341        -0.860517
 H         0.732189        -0.734165        -1.935474
 H        -0.516366        -2.178422         0.352158
 H         0.002676         0.874416         1.028540
 H         2.304973        -1.374945         3.720442
 H         0.931049        -2.055955         2.630523
 H         2.430550        -2.011210        -0.339754
