19
Iteration:  4587charge 0 multiplicity 1
 C         2.703072         1.243907        -0.141219
 C         1.671238         0.110531         0.053649
 C         0.696997        -0.426001        -0.949998
 C         0.470178        -1.286596         0.388578
 C         0.553197         0.057823         1.140277
 O         1.102949         0.098465         2.415970
 C         1.703454        -1.220425         2.757085
 O         2.498726        -1.802971         1.768176
 C         1.974762        -1.426265         0.433708
 H         3.566322         1.286030         0.625624
 H         3.185391         1.228949        -1.187943
 H         2.195109         2.285773        -0.201549
 H        -0.020573         0.284303        -1.327955
 H         1.177932        -1.038581        -1.840870
 H        -0.056797        -2.117981         0.740120
 H        -0.206368         0.846451         1.129166
 H         2.241586        -1.175781         3.654077
 H         0.916383        -1.837449         3.118797
 H         2.529745        -2.111360        -0.346654
