19
Iteration:   554charge 0 multiplicity 1
 C         2.653832         1.172968        -0.375066
 C         1.739255         0.160011         0.065400
 C         0.614975        -0.348031        -0.878167
 C         0.412410        -1.142632         0.398424
 C         0.582025         0.126517         1.189341
 O         1.062847        -0.156442         2.568270
 C         1.822418        -1.264525         2.789043
 O         2.582621        -1.729339         1.716282
 C         1.966451        -1.389965         0.394073
 H         3.161675         1.486470         0.537177
 H         3.423332         1.016167        -1.133565
 H         2.074996         2.034346        -0.665585
 H        -0.218644         0.293396        -1.273234
 H         0.902959        -1.060651        -1.667940
 H        -0.401375        -1.927961         0.701782
 H        -0.328628         0.718344         1.129856
 H         2.527065        -1.059122         3.649559
 H         1.142625        -2.110924         3.044750
 H         2.329516        -1.976754        -0.373692
