19
Iteration:  2210
 C         2.719609         1.243810        -0.103214
 C         1.682873         0.093457         0.139954
 C         0.596080        -0.325437        -0.846174
 C         0.377870        -1.374868         0.366812
 C         0.596920        -0.008069         1.185142
 O         1.149966         0.094985         2.510182
 C         1.713461        -1.279055         2.638803
 O         2.599049        -1.698707         1.597181
 C         1.970476        -1.417108         0.385023
 H         3.643181         1.205286         0.552697
 H         3.091745         0.937386        -1.132675
 H         2.121444         2.199453        -0.152205
 H        -0.266624         0.385790        -0.953123
 H         1.009267        -0.802145        -1.731843
 H        -0.442265        -2.066985         0.529677
 H        -0.260558         0.724845         1.213947
 H         2.153211        -1.283749         3.675253
 H         0.808070        -1.937227         2.890686
 H         2.710088        -1.879238        -0.314909
