19
Iteration:  3414charge 0 multiplicity 1
 C         2.592058         1.302211        -0.160872
 C         1.661900         0.223495         0.023912
 C         0.675129        -0.430391        -0.848574
 C         0.455821        -1.266442         0.389131
 C         0.667810         0.055014         1.267700
 O         1.218257         0.066169         2.493867
 C         1.690031        -1.290132         2.735956
 O         2.459319        -1.852375         1.651833
 C         1.971195        -1.440384         0.328797
 H         3.385108         1.223754         0.570674
 H         3.361755         1.190767        -1.011535
 H         2.273507         2.351470         0.041615
 H        -0.210699         0.111031        -1.159374
 H         0.913082        -0.823010        -1.845993
 H        -0.226568        -2.158728         0.699379
 H        -0.099355         0.813050         0.980709
 H         2.434895        -1.061533         3.505277
 H         0.717955        -1.802117         3.008858
 H         2.476747        -2.093809        -0.459623
