19
Iteration:  2451charge 0 multiplicity 1
 C         2.729265         1.139445        -0.105078
 C         1.703202         0.108722         0.077187
 C         0.495668        -0.400915        -0.957426
 C         0.358893        -1.184677         0.323357
 C         0.614579         0.032713         1.161003
 O         1.126454        -0.057721         2.555765
 C         1.759154        -1.316509         2.744725
 O         2.647781        -1.603633         1.635507
 C         1.949569        -1.360515         0.399013
 H         3.135558         1.430461         0.913499
 H         3.497656         0.884884        -0.843151
 H         2.300097         2.124273        -0.330911
 H        -0.313205         0.329011        -1.120617
 H         0.854846        -0.973528        -1.920620
 H        -0.418330        -1.851723         0.510874
 H        -0.116916         0.830637         1.325095
 H         2.386774        -1.172357         3.604759
 H         1.012495        -2.108292         2.868395
 H         2.387817        -2.114378        -0.289317
