19
Iteration:  1311charge 0 multiplicity 1
 C         2.709084         1.130046        -0.248661
 C         1.716280         0.129288         0.076646
 C         0.564159        -0.378912        -0.847931
 C         0.401959        -1.262076         0.386406
 C         0.553237         0.071555         1.196539
 O         1.039586        -0.016786         2.601113
 C         1.822152        -1.340042         2.676282
 O         2.696474        -1.616452         1.635236
 C         1.948499        -1.372728         0.410778
 H         2.844328         1.646882         0.662789
 H         3.587568         1.039733        -0.897938
 H         2.036447         1.857906        -0.760082
 H        -0.298023         0.280621        -0.945249
 H         0.867988        -0.879078        -1.781611
 H        -0.470210        -1.839880         0.235982
 H        -0.228013         0.890625         1.207992
 H         2.384341        -1.267718         3.600484
 H         1.007955        -2.088134         2.877221
 H         2.348717        -2.218106        -0.283846
