19
Iteration:  1587charge 0 multiplicity 1
 C         2.630681         1.229692        -0.126528
 C         1.700104         0.087901         0.009861
 C         0.582016        -0.493824        -0.930312
 C         0.292865        -1.203135         0.439850
 C         0.753712         0.109043         1.145333
 O         1.105379        -0.077622         2.514684
 C         1.755960        -1.398321         2.757149
 O         2.641834        -1.576460         1.633808
 C         1.920510        -1.304425         0.397708
 H         3.559193         1.041238         0.557539
 H         3.070338         1.224135        -1.211580
 H         2.186913         2.172106         0.131098
 H        -0.293103         0.131159        -1.272343
 H         1.058823        -1.058135        -1.719408
 H        -0.421482        -1.916068         0.894622
 H        -0.023364         0.944600         1.249169
 H         2.237988        -1.305138         3.740465
 H         1.006615        -2.127798         2.831844
 H         2.469726        -1.945810        -0.403501
