19
Iteration:  4212
 C         2.830460         1.137859        -0.208875
 C         1.724044         0.140688         0.025995
 C         0.573856        -0.394158        -0.917322
 C         0.453636        -1.340444         0.302783
 C         0.624121         0.103801         1.172324
 O         1.032153         0.017496         2.574563
 C         1.597604        -1.261719         2.748227
 O         2.603543        -1.632203         1.713450
 C         1.941598        -1.414741         0.415172
 H         3.302559         1.479413         0.730697
 H         3.658336         0.818782        -0.934643
 H         2.406093         2.094328        -0.551076
 H        -0.326310         0.330194        -0.998316
 H         0.914971        -0.913825        -1.757636
 H        -0.172883        -2.238670         0.480109
 H        -0.041205         0.952045         1.069218
 H         2.137874        -1.218858         3.710066
 H         0.928194        -2.103486         2.939397
 H         2.509719        -2.001577        -0.260469
