19
Iteration:  2084charge 0 multiplicity 1
 C         2.640256         1.259006        -0.025003
 C         1.685057         0.105158         0.048776
 C         0.574320        -0.413741        -0.853314
 C         0.363277        -1.249857         0.435132
 C         0.642249         0.049641         1.181612
 O         1.261769         0.020405         2.450640
 C         1.724038        -1.228120         2.645625
 O         2.588256        -1.754049         1.622648
 C         1.920499        -1.415934         0.358119
 H         3.115780         1.168776         0.964475
 H         3.371914         1.280579        -0.890637
 H         2.165240         2.289121        -0.067907
 H        -0.315253         0.225382        -1.179919
 H         0.886992        -1.095795        -1.729917
 H        -0.455463        -2.021743         0.418205
 H        -0.122242         0.824940         1.328103
 H         2.228301        -1.263547         3.662779
 H         0.826730        -1.933915         2.677024
 H         2.544272        -1.994593        -0.356954
