19
Iteration:  1410
 C         2.676239         1.260881        -0.196442
 C         1.666538         0.135351         0.016244
 C         0.563597        -0.356153        -0.928398
 C         0.399777        -1.249737         0.358039
 C         0.603863         0.012229         1.190377
 O         1.114293        -0.005055         2.522791
 C         1.817434        -1.274997         2.815972
 O         2.603076        -1.749553         1.682611
 C         1.931522        -1.405554         0.396981
 H         3.549505         1.168117         0.433969
 H         3.015769         1.347458        -1.269948
 H         2.287686         2.270280         0.002389
 H        -0.346552         0.123597        -1.257737
 H         1.002363        -0.939877        -1.721545
 H        -0.291570        -2.019983         0.563133
 H        -0.210975         0.785753         1.249778
 H         2.560133        -1.093259         3.618405
 H         0.947254        -1.967246         3.084280
 H         2.536247        -2.051967        -0.328093
