19
Iteration:  1909
 C         2.555362         1.200670        -0.084791
 C         1.609382         0.065383         0.130037
 C         0.623061        -0.325953        -0.993358
 C         0.433283        -1.266869         0.278579
 C         0.594343         0.026502         1.175247
 O         1.297377         0.087808         2.500040
 C         1.812225        -1.230999         2.782221
 O         2.474272        -1.823893         1.653395
 C         1.971036        -1.373250         0.410717
 H         3.264565         1.274642         0.672402
 H         3.226244         0.957597        -0.885970
 H         2.039103         2.192979        -0.164386
 H        -0.210735         0.324322        -0.936636
 H         1.083008        -0.547659        -1.967054
 H        -0.342455        -2.108392         0.319339
 H        -0.322400         0.549975         1.376322
 H         2.684351        -1.125029         3.517078
 H         0.962986        -1.938409         3.031856
 H         2.521851        -1.934949        -0.310121
