19
Iteration:  2478
 C         2.901312         1.108706        -0.269345
 C         1.727868         0.191739         0.168063
 C         0.486655        -0.322882        -0.794883
 C         0.493551        -1.338079         0.411095
 C         0.574492         0.007589         1.237320
 O         0.944753        -0.069252         2.576262
 C         1.704875        -1.273035         2.669271
 O         2.620332        -1.633627         1.568439
 C         1.932641        -1.282698         0.331490
 H         3.268713         1.583550         0.599061
 H         3.625832         0.569733        -0.947989
 H         2.527800         2.044034        -0.788433
 H        -0.343273         0.405403        -0.916865
 H         0.903210        -0.689368        -1.661621
 H         0.034782        -2.395159         0.557933
 H        -0.227347         0.760729         1.309662
 H         2.366921        -1.049988         3.542808
 H         1.002887        -2.095787         2.901436
 H         2.372129        -1.965784        -0.452279
