19
Iteration:  3066
 C         2.620486         1.326264        -0.183533
 C         1.743209         0.158351         0.012178
 C         0.639755        -0.418732        -0.851004
 C         0.365156        -1.230518         0.380630
 C         0.673528         0.057634         1.140633
 O         1.162222        -0.039501         2.464625
 C         1.670521        -1.335312         2.708455
 O         2.577086        -1.821071         1.703274
 C         1.964161        -1.394804         0.509706
 H         3.284621         1.641046         0.588019
 H         3.414992         1.128889        -1.019125
 H         2.169393         2.331583        -0.345482
 H        -0.149830         0.356751        -1.161695
 H         0.901718        -0.842160        -1.853930
 H        -0.629105        -1.693477         0.620169
 H        -0.017669         1.084073         1.298526
 H         2.298906        -1.170449         3.578740
 H         0.911810        -2.031569         2.858158
 H         2.304106        -1.986719        -0.359557
