19
Iteration:  2863
 C         2.717657         1.184532        -0.272253
 C         1.738653         0.223291         0.144639
 C         0.570369        -0.287760        -0.841612
 C         0.453955        -1.240212         0.340249
 C         0.570777        -0.014298         1.208555
 O         1.051070        -0.060727         2.542045
 C         1.688275        -1.303445         2.736743
 O         2.617009        -1.703416         1.692867
 C         1.993480        -1.376988         0.379563
 H         3.392063         1.577023         0.585082
 H         3.353814         0.582200        -1.003710
 H         2.334652         1.959467        -0.913530
 H        -0.227790         0.470431        -1.208644
 H         0.917762        -0.760174        -1.816404
 H        -0.369856        -1.979292         0.644967
 H        -0.261287         0.612727         1.151736
 H         2.282595        -1.286996         3.710170
 H         1.000496        -2.173079         2.675220
 H         2.525660        -1.979951        -0.432393
