19
Iteration:    44charge 0 multiplicity 1
 C         2.699210         1.229541        -0.261093
 C         1.726058         0.125744         0.000826
 C         0.536412        -0.434387        -0.953239
 C         0.354794        -1.258954         0.365296
 C         0.642277         0.075319         1.253056
 O         1.163168        -0.029411         2.543665
 C         1.766299        -1.282693         2.807650
 O         2.528455        -1.680995         1.714215
 C         1.960683        -1.357977         0.398119
 H         3.332847         1.430902         0.588497
 H         3.379485         0.951229        -1.063340
 H         2.218055         2.147949        -0.548055
 H        -0.178083         0.349915        -1.252132
 H         0.871414        -1.030733        -1.806907
 H        -0.317950        -2.075884         0.486205
 H        -0.169348         0.806971         1.308358
 H         2.470958        -1.262092         3.625103
 H         1.042842        -2.098048         3.044677
 H         2.489403        -1.995951        -0.338416
