19
Iteration:  2308charge 0 multiplicity 1
 C         2.859031         1.192665        -0.232443
 C         1.628141         0.135675        -0.003953
 C         0.518696        -0.327608        -0.856346
 C         0.411638        -1.308636         0.352972
 C         0.577870         0.026587         1.200013
 O         1.118562        -0.096820         2.580639
 C         1.696714        -1.377148         2.722464
 O         2.633445        -1.514900         1.664902
 C         1.962666        -1.365098         0.419163
 H         3.304812         1.529092         0.776539
 H         3.679848         0.729068        -0.764030
 H         2.360895         2.061831        -0.632752
 H        -0.397080         0.321754        -0.799110
 H         0.568589        -0.882400        -1.836106
 H        -0.359484        -1.996290         0.187257
 H        -0.263438         0.733896         1.290927
 H         2.253108        -1.312093         3.640366
 H         0.866177        -2.109135         2.709581
 H         2.536816        -1.986180        -0.228621
