19
Iteration:  2834charge 0 multiplicity 1
 C         2.879086         1.150972        -0.249874
 C         1.739988         0.171777         0.042868
 C         0.546940        -0.385730        -0.874011
 C         0.400795        -1.269011         0.280329
 C         0.566445         0.057009         1.223653
 O         1.002153        -0.101702         2.630774
 C         1.806201        -1.419234         2.757940
 O         2.543999        -1.508410         1.672085
 C         1.952705        -1.306685         0.353440
 H         3.285378         1.103085         0.757989
 H         3.415234         0.714875        -1.075921
 H         2.391390         2.105914        -0.614508
 H        -0.210952         0.257239        -1.119793
 H         0.808667        -0.874864        -1.877054
 H        -0.305000        -1.929272         0.643443
 H        -0.305760         0.859454         1.343572
 H         2.370969        -1.235469         3.674702
 H         1.118641        -2.281423         2.898077
 H         2.420376        -1.925557        -0.391627
