19
Iteration:  2498
 C         2.752524         1.078031        -0.297760
 C         1.667684         0.221806         0.033024
 C         0.550297        -0.307179        -0.878636
 C         0.383163        -1.212170         0.351795
 C         0.581203         0.043593         1.215114
 O         1.006407        -0.158516         2.620401
 C         1.766195        -1.374567         2.734534
 O         2.640058        -1.578175         1.694594
 C         2.010800        -1.346994         0.424686
 H         3.329839         1.583816         0.442416
 H         3.480858         0.436088        -0.899589
 H         2.661486         1.997863        -0.947329
 H        -0.203224         0.487317        -1.057235
 H         0.828648        -0.793841        -1.871311
 H        -0.520011        -1.863905         0.383993
 H        -0.252805         0.828436         1.333782
 H         2.376988        -1.210237         3.683044
 H         1.061056        -2.193351         2.781278
 H         2.782169        -1.701351        -0.379699
