19
Iteration:  3965charge 0 multiplicity 1
 C         2.752590         1.138080        -0.137633
 C         1.692416         0.035293         0.040991
 C         0.620355        -0.359777        -0.988017
 C         0.389436        -1.341877         0.315120
 C         0.580378         0.005319         1.213516
 O         1.108343         0.033819         2.535787
 C         1.699859        -1.237674         2.823907
 O         2.610332        -1.593672         1.701893
 C         1.925425        -1.366663         0.397519
 H         3.539355         1.113193         0.604762
 H         3.300488         1.314347        -1.116309
 H         2.189126         2.074967         0.050142
 H        -0.172924         0.309981        -0.989859
 H         0.900162        -0.728187        -2.068135
 H        -0.287955        -2.250624         0.179573
 H        -0.145745         0.859120         1.080516
 H         2.227409        -1.143065         3.822746
 H         1.020296        -1.978616         2.515293
 H         2.441167        -2.068724        -0.366954
