19
Iteration:  1286charge 0 multiplicity 1
 C         2.665294         1.308897        -0.266116
 C         1.707803         0.183252         0.017064
 C         0.593363        -0.426565        -0.933871
 C         0.372929        -1.247235         0.492279
 C         0.704632         0.037403         1.152331
 O         1.073147        -0.175971         2.542777
 C         1.778494        -1.299248         2.788980
 O         2.582910        -1.636584         1.636291
 C         1.918377        -1.396805         0.376851
 H         2.876605         1.763383         0.716821
 H         3.519173         0.980571        -0.784570
 H         2.246177         2.144180        -0.918196
 H        -0.216041         0.243108        -1.066392
 H         0.978122        -0.995022        -1.824138
 H        -0.455055        -1.613982         0.975357
 H         0.206307         0.975323         1.306731
 H         2.381121        -1.059656         3.654198
 H         1.119579        -2.146720         3.273232
 H         2.390895        -2.197466        -0.239443
