19
Iteration:  1166
 C         2.739148         1.139579        -0.257074
 C         1.613883         0.099230         0.166041
 C         0.556371        -0.301549        -0.894322
 C         0.356276        -1.299695         0.304615
 C         0.518660        -0.042491         1.180109
 O         1.102020        -0.017788         2.585246
 C         1.818479        -1.210710         2.778082
 O         2.667805        -1.602668         1.642548
 C         1.975318        -1.402022         0.385167
 H         3.644354         0.863209         0.342075
 H         2.985554         0.981705        -1.277304
 H         2.539709         2.224424        -0.111415
 H        -0.185685         0.455678        -1.039760
 H         0.870844        -0.921686        -1.743633
 H        -0.377153        -2.024587         0.404596
 H        -0.339839         0.645103         1.180409
 H         2.473515        -1.058498         3.625830
 H         1.096397        -1.976477         2.976907
 H         2.472747        -2.031003        -0.455821
