19
Iteration:  2142
 C         2.765898         1.194157        -0.290382
 C         1.757619         0.085160         0.108754
 C         0.668948        -0.250987        -0.895350
 C         0.341381        -1.226260         0.425831
 C         0.561915         0.022779         1.239067
 O         0.997042        -0.139575         2.577942
 C         1.816601        -1.343295         2.707957
 O         2.655803        -1.513247         1.630764
 C         1.856830        -1.452420         0.390561
 H         3.444853         1.583364         0.518024
 H         3.401690         0.640589        -0.988806
 H         2.032288         1.901249        -0.570118
 H        -0.229966         0.482713        -1.019497
 H         1.010973        -0.676106        -1.813060
 H        -0.415700        -2.043407         0.616272
 H        -0.206924         0.794643         1.084147
 H         2.387023        -1.303471         3.645397
 H         1.115152        -2.291411         2.894781
 H         2.221264        -1.974124        -0.446099
