19
Iteration:  4913
 C         2.704180         1.174117        -0.171633
 C         1.713036         0.117215         0.042350
 C         0.670318        -0.433577        -0.950215
 C         0.355774        -1.237309         0.389690
 C         0.632246         0.068550         1.141590
 O         1.131146         0.017331         2.435653
 C         1.729588        -1.280722         2.759483
 O         2.505552        -1.661435         1.747420
 C         1.969854        -1.411960         0.476368
 H         3.382390         1.339485         0.713582
 H         3.434824         1.223358        -0.991396
 H         2.184465         2.152125        -0.242210
 H        -0.162939         0.265190        -1.196640
 H         1.047020        -1.019875        -1.862818
 H        -0.350836        -2.092245         0.476533
 H        -0.159625         0.820582         1.096503
 H         2.248230        -1.303578         3.692574
 H         0.915471        -1.934175         2.845491
 H         2.408801        -2.084114        -0.217933
