19
Iteration:  3146
 C         2.802809         1.080292        -0.161192
 C         1.645919         0.146129         0.049511
 C         0.542247        -0.335441        -0.882604
 C         0.301969        -1.262271         0.305030
 C         0.591930         0.065172         1.207133
 O         1.064179        -0.048790         2.572475
 C         1.712817        -1.313177         2.741949
 O         2.698602        -1.562507         1.611265
 C         1.985080        -1.384679         0.401324
 H         3.303195         0.972688         0.846263
 H         3.552504         0.793237        -0.879728
 H         2.671548         2.112942        -0.352556
 H        -0.231632         0.437395        -1.096947
 H         0.914653        -0.854542        -1.737169
 H        -0.413247        -2.085904         0.472590
 H        -0.290218         0.814849         1.323700
 H         2.273778        -1.257719         3.680545
 H         1.023295        -2.093265         2.759371
 H         2.433126        -1.990261        -0.397416
