19
Iteration:   837charge 0 multiplicity 1
 C         2.772820         1.156013        -0.116747
 C         1.668188         0.115693        -0.021110
 C         0.509174        -0.459773        -0.909807
 C         0.436010        -1.281969         0.476763
 C         0.639915         0.123379         1.149114
 O         1.116115        -0.045323         2.535917
 C         1.803472        -1.278693         2.743626
 O         2.528226        -1.556334         1.639583
 C         1.887405        -1.407171         0.345849
 H         3.497707         1.124854         0.783762
 H         3.352391         1.125518        -1.060635
 H         2.327241         2.166159        -0.257398
 H        -0.214205         0.349838        -1.122109
 H         0.897518        -0.932979        -1.806856
 H        -0.193524        -2.051577         0.834759
 H        -0.229572         0.850319         1.221682
 H         2.668443        -1.252777         3.549021
 H         1.062104        -2.112581         2.903282
 H         2.349639        -2.230224        -0.373961
