19
Iteration:  1510
 C         2.746690         1.250860        -0.226623
 C         1.583045         0.212471         0.046082
 C         0.537255        -0.363616        -0.921846
 C         0.399821        -1.306121         0.388543
 C         0.582538        -0.006165         1.161950
 O         1.133019        -0.030825         2.582685
 C         1.832995        -1.274495         2.755969
 O         2.582420        -1.728657         1.661828
 C         1.937562        -1.351663         0.386023
 H         3.236078         1.588992         0.743203
 H         3.696209         0.747966        -0.662099
 H         2.544833         2.151380        -0.769877
 H        -0.418877         0.197326        -1.027981
 H         0.960158        -0.741240        -1.814460
 H        -0.227319        -2.195894         0.405491
 H        -0.234818         0.762344         1.253066
 H         2.469633        -1.096535         3.674011
 H         1.076761        -2.068233         3.012810
 H         2.443330        -2.113585        -0.313517
