19
Iteration:  4688
 C         2.840434         1.019042        -0.239940
 C         1.727684         0.133127         0.010230
 C         0.626096        -0.373440        -0.911468
 C         0.380631        -1.281163         0.418559
 C         0.587331         0.003484         1.202139
 O         0.928780        -0.008867         2.600137
 C         1.685151        -1.297469         2.731457
 O         2.628040        -1.476541         1.706174
 C         1.973054        -1.319117         0.356219
 H         3.271883         1.161887         0.803368
 H         3.676203         0.496779        -0.798022
 H         2.800414         2.041423        -0.779909
 H        -0.133183         0.429445        -1.236489
 H         0.866352        -1.093672        -1.759299
 H        -0.264093        -2.152161         0.354387
 H        -0.380157         0.590447         1.126460
 H         2.365035        -0.948721         3.572631
 H         1.009295        -2.212557         2.838317
 H         2.463179        -2.132335        -0.328850
