19
Iteration:   353charge 0 multiplicity 1
 C         2.682742         1.174876        -0.222733
 C         1.730250         0.036218         0.079838
 C         0.591451        -0.433509        -0.854369
 C         0.236851        -1.221521         0.430665
 C         0.702893         0.067738         1.188291
 O         1.174673        -0.015638         2.546066
 C         1.678252        -1.305183         2.719402
 O         2.593764        -1.596177         1.630136
 C         1.998355        -1.389208         0.420622
 H         3.236836         1.599021         0.660980
 H         3.340486         0.909613        -1.047609
 H         2.018464         2.032371        -0.572943
 H        -0.073460         0.375009        -1.183904
 H         0.979853        -0.986813        -1.763242
 H        -0.696650        -1.843723         0.550706
 H         0.040144         0.996947         1.024978
 H         2.373049        -1.181006         3.564665
 H         1.015733        -2.200334         2.617460
 H         2.459690        -2.049654        -0.311128
