19
Iteration:  2558charge 0 multiplicity 1
 C         2.717961         1.273892        -0.104383
 C         1.665444         0.136098         0.054871
 C         0.539500        -0.388513        -0.907072
 C         0.514402        -1.264635         0.381406
 C         0.593130         0.060506         1.158307
 O         1.204309         0.039628         2.470436
 C         1.650734        -1.281695         2.747541
 O         2.576301        -1.800903         1.677038
 C         1.969112        -1.376104         0.398201
 H         3.594215         1.171140         0.616583
 H         3.033060         1.180722        -1.109462
 H         2.026741         2.082539         0.017437
 H        -0.357864         0.201261        -0.963033
 H         0.739372        -0.814053        -1.881415
 H        -0.180931        -2.114636         0.519697
 H        -0.226490         0.772829         1.115980
 H         2.252377        -1.263696         3.649258
 H         0.783677        -1.996425         2.758669
 H         2.485384        -1.938145        -0.336348
