19
Iteration:  2329charge 0 multiplicity 1
 C         2.771370         1.149292        -0.227303
 C         1.697428         0.118844         0.041820
 C         0.516800        -0.426194        -0.903132
 C         0.419908        -1.171394         0.491366
 C         0.667679         0.102862         1.230428
 O         0.957747        -0.161158         2.584451
 C         1.677423        -1.412159         2.666381
 O         2.694848        -1.517105         1.622571
 C         1.975526        -1.297431         0.346723
 H         3.471078         1.401371         0.602662
 H         3.585716         0.778891        -0.874068
 H         2.439031         2.129065        -0.586873
 H        -0.323315         0.301219        -1.187608
 H         0.905741        -1.077768        -1.733959
 H        -0.258978        -1.912477         0.869810
 H         0.000298         0.928153         1.363729
 H         2.151622        -1.240849         3.621907
 H         0.972418        -2.213627         2.710546
 H         2.334094        -1.989410        -0.359872
