19
Iteration:  3642
 C         2.842409         1.172720        -0.149720
 C         1.697194         0.142316        -0.029202
 C         0.541488        -0.464845        -0.853863
 C         0.367572        -1.234064         0.364587
 C         0.646642         0.095178         1.205605
 O         0.992415        -0.125126         2.522223
 C         1.768414        -1.269483         2.761212
 O         2.590140        -1.550491         1.606286
 C         1.917374        -1.422472         0.444309
 H         3.386057         1.425173         0.743569
 H         3.667114         0.898521        -0.753775
 H         2.541873         2.171386        -0.579461
 H        -0.287970         0.218196        -0.897167
 H         0.907429        -0.930402        -1.811795
 H        -0.392073        -2.022804         0.554313
 H        -0.024031         1.037804         1.232445
 H         2.434508        -1.029616         3.578001
 H         1.176509        -2.142983         2.812172
 H         2.325171        -2.032811        -0.357425
