19
Iteration:  1220
 C         2.770610         1.233452        -0.141597
 C         1.622579         0.073086        -0.016843
 C         0.457752        -0.480290        -0.938849
 C         0.325391        -1.293558         0.398564
 C         0.620210         0.059124         1.182258
 O         1.158722        -0.009213         2.557774
 C         1.741688        -1.287009         2.719889
 O         2.669437        -1.611991         1.669964
 C         2.036506        -1.338638         0.407305
 H         3.402360         1.200141         0.783677
 H         3.297248         1.299113        -1.059069
 H         2.270194         2.211024         0.016286
 H        -0.352378         0.235413        -0.986314
 H         0.646192        -0.956208        -1.943384
 H        -0.345371        -2.071020         0.501100
 H        -0.128891         0.845750         1.157031
 H         2.238865        -1.360226         3.687731
 H         0.897391        -2.049530         2.785770
 H         2.369372        -1.991964        -0.421712
