19
Iteration:  3109
 C         2.717420         1.277691        -0.110539
 C         1.679021         0.130680         0.020541
 C         0.633155        -0.410378        -0.862003
 C         0.365182        -1.307885         0.368173
 C         0.634294         0.080287         1.186454
 O         1.190966         0.037428         2.561627
 C         1.709085        -1.228495         2.760727
 O         2.506830        -1.765872         1.611559
 C         1.972417        -1.416137         0.349843
 H         3.222266         1.217778         0.839268
 H         3.482866         1.026896        -0.919054
 H         2.179768         2.277611        -0.074993
 H        -0.298495         0.218852        -1.150461
 H         0.902560        -0.941764        -1.835872
 H        -0.305980        -2.200071         0.323507
 H        -0.166462         0.881660         1.035112
 H         2.366072        -1.339049         3.626407
 H         0.888706        -1.993057         2.794898
 H         2.474348        -1.985893        -0.472804
