19
Iteration:  1066
 C         2.717327         1.293825        -0.226359
 C         1.624417         0.211339         0.070946
 C         0.466078        -0.402888        -0.853625
 C         0.505762        -1.321672         0.364786
 C         0.654288         0.090622         1.199127
 O         1.113738         0.047865         2.543228
 C         1.752973        -1.263580         2.768536
 O         2.579967        -1.810335         1.610793
 C         1.973330        -1.472422         0.400373
 H         3.279423         1.528413         0.751925
 H         3.512440         0.759843        -0.751580
 H         2.363699         2.176616        -0.735583
 H        -0.458074         0.196104        -1.041271
 H         0.867978        -0.759445        -1.791207
 H        -0.146716        -2.088082         0.657872
 H        -0.270808         0.672288         1.227936
 H         2.474764        -1.005495         3.601860
 H         0.957649        -1.926200         2.972943
 H         2.425624        -1.963689        -0.548830
