19
Iteration:   753
 C         2.753684         1.191623        -0.224753
 C         1.696089         0.153567         0.019120
 C         0.336536        -0.457921        -0.922077
 C         0.457888        -1.287365         0.433876
 C         0.737764         0.108923         1.170406
 O         1.140515         0.027003         2.539024
 C         1.689238        -1.366131         2.685733
 O         2.621404        -1.675285         1.670449
 C         2.010612        -1.335488         0.454569
 H         3.282359         1.401892         0.740368
 H         3.462813         0.921299        -0.936028
 H         2.261390         2.170627        -0.373623
 H        -0.454395         0.292249        -1.005619
 H         0.612639        -1.010242        -1.904810
 H        -0.313566        -2.070199         0.920371
 H        -0.126527         0.799794         1.151378
 H         2.180660        -1.361479         3.696388
 H         0.809076        -2.006325         2.818894
 H         2.356068        -1.834339        -0.369538
