19
Iteration:   675charge 0 multiplicity 1
 C         2.798694         1.208884        -0.165780
 C         1.748804         0.150365         0.073928
 C         0.497734        -0.366646        -0.830509
 C         0.401853        -1.315821         0.371222
 C         0.551811         0.038482         1.185071
 O         1.059691        -0.047192         2.501065
 C         1.890624        -1.094830         2.782931
 O         2.532318        -1.786971         1.650064
 C         1.907331        -1.386526         0.323969
 H         3.575273         1.423932         0.619010
 H         3.337812         0.782368        -0.974120
 H         2.366740         2.113389        -0.584918
 H        -0.462923         0.187603        -0.995509
 H         0.575356        -0.856954        -1.847744
 H        -0.266530        -2.263430         0.629002
 H        -0.162194         0.904207         1.162794
 H         2.811235        -0.813829         3.461153
 H         1.334060        -1.997751         3.201789
 H         2.287894        -1.927099        -0.484652
