19
Iteration:  4462
 C         2.677590         1.312197        -0.186805
 C         1.839109        -0.002954         0.029809
 C         0.669976        -0.496221        -0.944015
 C         0.464416        -1.245110         0.366206
 C         0.616821         0.112110         1.064611
 O         1.109748         0.046458         2.538049
 C         1.619429        -1.199734         2.784730
 O         2.514628        -1.725807         1.699349
 C         1.959886        -1.447614         0.479151
 H         3.095445         1.630751         0.768109
 H         3.568301         1.177167        -0.865182
 H         2.027012         2.159359        -0.417018
 H        -0.226816         0.199105        -1.026249
 H         0.944620        -1.092988        -1.748795
 H        -0.412563        -1.995978         0.408368
 H        -0.230575         0.790417         1.165252
 H         2.202785        -1.179571         3.803844
 H         0.828854        -1.982741         2.774722
 H         2.485610        -2.212603        -0.292235
