19
Iteration:  4324
 C         2.890645         1.070738        -0.166163
 C         1.711261         0.108984         0.039489
 C         0.587317        -0.418467        -0.912341
 C         0.452285        -1.319567         0.335102
 C         0.577242         0.022013         1.188002
 O         0.995845         0.006390         2.549587
 C         1.569698        -1.205129         2.800776
 O         2.613375        -1.532296         1.662608
 C         2.028480        -1.360209         0.363708
 H         3.533766         1.128719         0.696039
 H         3.412277         0.597270        -1.005784
 H         2.548923         2.094559        -0.249230
 H        -0.249411         0.243391        -1.148529
 H         0.968005        -0.964909        -1.796902
 H        -0.376261        -2.001282         0.600806
 H        -0.236742         0.771661         1.050580
 H         2.035650        -1.106424         3.821434
 H         0.846760        -2.074894         2.699892
 H         2.401337        -2.030346        -0.351461
