19
Iteration:  4070
 C         2.688232         1.279289        -0.171804
 C         1.677041         0.122692        -0.019565
 C         0.647007        -0.452741        -0.910472
 C         0.425484        -1.217069         0.417469
 C         0.682423         0.063088         1.132696
 O         1.111441         0.050397         2.556877
 C         1.549310        -1.219162         2.720175
 O         2.604306        -1.799726         1.696005
 C         2.014248        -1.459562         0.406032
 H         3.054006         1.580167         0.830351
 H         3.540712         1.045032        -0.843899
 H         2.200334         2.150802        -0.547140
 H        -0.193795         0.344646        -1.171248
 H         1.050141        -1.044118        -1.681353
 H        -0.177950        -2.019818         0.688696
 H        -0.120136         0.781273         1.110980
 H         2.054459        -1.222398         3.691507
 H         0.822410        -2.060506         2.838208
 H         2.550217        -1.950637        -0.362796
