19
Iteration:  1238charge 0 multiplicity 1
 C         2.619511         1.168420        -0.137985
 C         1.671947         0.141464         0.093450
 C         0.583705        -0.349494        -0.790674
 C         0.483248        -1.303567         0.421582
 C         0.604456         0.014109         1.173882
 O         1.209952         0.017065         2.435188
 C         1.713629        -1.277059         2.678115
 O         2.581059        -1.616285         1.601040
 C         1.929701        -1.424283         0.406669
 H         3.335250         1.297810         0.719370
 H         3.124158         0.807851        -1.111628
 H         2.227132         2.128489        -0.394309
 H        -0.367072         0.273013        -0.993310
 H         1.130727        -0.810841        -1.605988
 H        -0.292952        -2.162441         0.600710
 H        -0.332664         0.571075         1.250036
 H         2.217228        -1.213967         3.703118
 H         0.890632        -1.993455         2.845370
 H         2.577308        -1.924799        -0.244435
