19
Iteration:   994charge 0 multiplicity 1
 C         2.713581         1.106932        -0.096356
 C         1.715485         0.081841         0.027181
 C         0.517438        -0.458718        -0.868671
 C         0.359173        -1.172162         0.493608
 C         0.648095         0.084365         1.162413
 O         1.097172        -0.100239         2.516764
 C         1.744641        -1.270649         2.701190
 O         2.638317        -1.549845         1.617552
 C         2.005040        -1.339916         0.325572
 H         3.584087         1.047548         0.542868
 H         3.048337         1.013250        -1.127587
 H         2.049326         2.027761         0.019874
 H        -0.192469         0.299985        -1.182125
 H         0.703268        -1.123554        -1.776576
 H        -0.445505        -1.920683         0.836949
 H        -0.165863         0.858828         1.135556
 H         2.310111        -1.064138         3.578820
 H         1.029755        -2.096111         2.834249
 H         2.311121        -2.002833        -0.457251
