19
Iteration:  2552
 C         2.654974         1.242814        -0.134434
 C         1.728824         0.127502         0.023095
 C         0.547040        -0.396386        -0.880098
 C         0.471472        -1.260645         0.430396
 C         0.641354         0.072327         1.177189
 O         1.123503         0.049365         2.490860
 C         1.656213        -1.290041         2.728638
 O         2.602032        -1.812445         1.639100
 C         1.989443        -1.363620         0.375641
 H         3.385985         1.156115         0.680207
 H         3.157011         1.220958        -1.163641
 H         2.186872         2.283787        -0.000840
 H        -0.361362         0.247835        -0.978167
 H         1.057419        -0.814359        -1.846066
 H        -0.202657        -2.076297         0.645200
 H        -0.078864         0.947901         1.277073
 H         2.082655        -1.316784         3.778026
 H         0.818885        -1.990161         2.769770
 H         2.512625        -2.019944        -0.395585
