19
Iteration:  3983charge 0 multiplicity 1
 C         2.764976         1.078873        -0.113872
 C         1.676329         0.144124         0.010633
 C         0.570543        -0.392575        -0.912814
 C         0.379056        -1.236711         0.326407
 C         0.624321         0.056173         1.155610
 O         1.005544        -0.078672         2.538731
 C         1.735349        -1.274735         2.723423
 O         2.612708        -1.481444         1.700543
 C         2.009164        -1.447985         0.428939
 H         3.542729         0.895096         0.660024
 H         3.256701         0.881564        -1.088833
 H         2.527296         2.109958        -0.187005
 H        -0.204939         0.387504        -1.234749
 H         0.972512        -0.863341        -1.720798
 H        -0.291473        -1.994009         0.610805
 H        -0.220456         0.715706         0.983716
 H         2.386415        -1.213818         3.555105
 H         0.956189        -2.059249         2.994010
 H         2.497438        -2.001837        -0.324818
