19
Iteration:  2260charge 0 multiplicity 1
 C         2.741363         1.424980        -0.082587
 C         1.713240         0.122944         0.059406
 C         0.590540        -0.487400        -0.971686
 C         0.355982        -1.184482         0.356760
 C         0.575384         0.059892         1.182959
 O         1.137496        -0.081404         2.495742
 C         1.821746        -1.227461         2.787020
 O         2.560390        -1.791406         1.618133
 C         1.883881        -1.426235         0.381416
 H         3.274332         1.531605         0.858889
 H         3.542691         1.072594        -0.773959
 H         2.045500         2.237015        -0.233946
 H        -0.238764         0.205562        -1.368925
 H         1.038271        -1.115801        -1.745080
 H        -0.293980        -2.098249         0.660252
 H        -0.196163         0.841474         1.285379
 H         2.571601        -0.924267         3.579886
 H         1.082820        -1.963462         3.142334
 H         2.256777        -2.196489        -0.298463
