19
Iteration:  2932
 C         2.694177         1.274445        -0.053862
 C         1.677181         0.085211         0.137977
 C         0.554289        -0.390643        -0.889636
 C         0.411571        -1.248693         0.336382
 C         0.644952         0.031574         1.165620
 O         1.182692         0.013518         2.387021
 C         1.707387        -1.203714         2.743570
 O         2.584492        -1.769211         1.685008
 C         1.959752        -1.420075         0.407439
 H         3.369548         1.171114         0.825322
 H         3.150231         1.112526        -0.975115
 H         2.138238         2.269919        -0.181453
 H        -0.225000         0.278621        -1.149806
 H         1.006713        -0.832955        -1.886338
 H        -0.197204        -2.083313         0.494160
 H        -0.218640         0.747716         1.108939
 H         2.285738        -1.164211         3.679423
 H         0.775734        -1.940037         2.717597
 H         2.288890        -1.991769        -0.461270
