19
Iteration:   135
 C         2.733993         1.107941        -0.148727
 C         1.672031         0.132072         0.112101
 C         0.606607        -0.384306        -0.890402
 C         0.318312        -1.240236         0.281597
 C         0.600021         0.043802         1.170779
 O         0.950403        -0.087510         2.559822
 C         1.967284        -0.978097         2.821521
 O         2.549504        -1.819359         1.611355
 C         1.957575        -1.398137         0.385894
 H         3.566845         1.272927         0.574685
 H         3.236564         0.762969        -1.032626
 H         2.290875         2.124071        -0.363043
 H        -0.074280         0.427112        -1.105053
 H         1.043105        -0.879050        -1.816806
 H        -0.696758        -1.850279         0.570532
 H        -0.346701         0.601852         1.010658
 H         3.022284        -0.648322         3.203660
 H         1.728363        -1.838779         3.394958
 H         2.385694        -1.851446        -0.472213
