19
Iteration:  1743charge 0 multiplicity 1
 C         2.616942         1.246806        -0.124414
 C         1.672114         0.103162         0.051741
 C         0.557905        -0.389050        -0.917876
 C         0.453623        -1.267037         0.389777
 C         0.639915         0.048191         1.216103
 O         1.247375         0.022431         2.478849
 C         1.723262        -1.251473         2.718052
 O         2.517449        -1.787890         1.675991
 C         1.961446        -1.354580         0.386655
 H         3.243168         1.075799         0.753903
 H         3.182537         1.205542        -1.030844
 H         1.938242         2.177937        -0.073853
 H        -0.215270         0.327257        -1.146404
 H         0.963171        -0.782049        -1.854107
 H        -0.158957        -2.207064         0.409033
 H        -0.001033         0.926381         1.156180
 H         2.404684        -1.258128         3.548163
 H         0.852237        -1.893531         2.979783
 H         2.490142        -1.943821        -0.366158
