19
Iteration:  4451
 C         2.706186         1.375654        -0.162185
 C         1.766879         0.137901        -0.039545
 C         0.712973        -0.546273        -0.935129
 C         0.366923        -1.280528         0.417765
 C         0.672751         0.095670         1.142363
 O         1.143431         0.092543         2.517785
 C         1.603646        -1.272811         2.704404
 O         2.501631        -1.708997         1.761304
 C         1.973201        -1.554993         0.458536
 H         3.049471         1.495089         0.860408
 H         3.563733         1.492547        -0.889091
 H         2.022231         2.184350        -0.466754
 H        -0.087314         0.136557        -1.429744
 H         1.039760        -1.098067        -1.762341
 H        -0.407459        -2.125934         0.605094
 H        -0.100242         0.858850         0.939890
 H         2.292113        -1.244488         3.652408
 H         0.697283        -1.913870         2.823699
 H         2.417010        -2.360374        -0.335424
