19
Iteration:   339charge 0 multiplicity 1
 C         2.692053         1.101896        -0.096785
 C         1.723811         0.056625         0.044219
 C         0.525024        -0.462353        -0.813368
 C         0.321290        -1.233714         0.477051
 C         0.671575         0.083697         1.189387
 O         1.161217         0.044231         2.485610
 C         1.702524        -1.247796         2.618614
 O         2.641817        -1.576138         1.618103
 C         1.993799        -1.419011         0.346772
 H         3.159672         1.310879         0.933110
 H         3.553588         0.922057        -0.740812
 H         2.176367         2.015054        -0.553934
 H        -0.205659         0.287117        -1.081535
 H         0.861010        -1.108709        -1.713788
 H        -0.440138        -1.860361         0.777532
 H        -0.177387         0.824208         1.310642
 H         1.953298        -1.595043         3.610886
 H         0.704453        -1.769509         2.640193
 H         2.449166        -2.046069        -0.541424
