19
Iteration:  4614
 C         2.602062         1.335005        -0.122223
 C         1.756990         0.049618         0.013519
 C         0.695746        -0.492262        -0.941789
 C         0.396163        -1.235998         0.290628
 C         0.682696         0.065517         1.084298
 O         1.168193         0.046296         2.452679
 C         1.707745        -1.241530         2.829564
 O         2.488942        -1.742118         1.773233
 C         1.932085        -1.448476         0.470830
 H         3.280846         1.471812         0.682071
 H         3.244804         1.266658        -0.993916
 H         2.090694         2.219685        -0.445327
 H        -0.087857         0.209562        -1.370780
 H         1.057630        -1.090981        -1.752404
 H        -0.422697        -2.052073         0.482451
 H         0.106881         1.031703         1.092204
 H         2.282038        -1.264653         3.859609
 H         0.778524        -1.918401         3.024080
 H         2.310534        -2.109366        -0.195888
