19
Iteration:   451charge 0 multiplicity 1
 C         2.757809         1.106547        -0.041466
 C         1.673026         0.060648        -0.009523
 C         0.512215        -0.478632        -0.912049
 C         0.326469        -1.278200         0.465601
 C         0.635172         0.140816         1.189184
 O         1.173613         0.004142         2.434785
 C         1.737051        -1.317811         2.683062
 O         2.676426        -1.551360         1.620805
 C         1.863087        -1.321013         0.434379
 H         3.363515         1.046331         0.871967
 H         3.363739         1.282095        -0.943902
 H         2.079428         2.012444        -0.102331
 H        -0.419952         0.012732        -1.194263
 H         0.971534        -1.062805        -1.741475
 H        -0.358702        -2.006727         0.794469
 H         0.030015         1.094732         1.064930
 H         2.383095        -1.383802         3.534845
 H         1.028969        -2.167579         2.890359
 H         2.339062        -1.998125        -0.285785
