19
Iteration:   933
 C         2.653531         1.231271        -0.280270
 C         1.715848         0.161811         0.053227
 C         0.622477        -0.409894        -0.814513
 C         0.396063        -1.269880         0.402897
 C         0.664625         0.139785         1.172619
 O         1.121600        -0.091028         2.483890
 C         1.789891        -1.296845         2.734465
 O         2.551822        -1.692627         1.683959
 C         1.898452        -1.396397         0.443179
 H         3.202791         1.611084         0.575066
 H         3.313569         1.165250        -1.181404
 H         2.020454         2.070351        -0.557502
 H        -0.181088         0.352148        -0.992490
 H         1.059572        -0.822056        -1.708898
 H        -0.372807        -2.048656         0.533292
 H        -0.183229         0.802225         1.282878
 H         2.506534        -1.111638         3.575229
 H         1.091560        -2.208388         3.005578
 H         2.313942        -2.177147        -0.262059
