19
Iteration:   397
 C         2.707489         1.243675        -0.439156
 C         1.748012         0.137530         0.122411
 C         0.565046        -0.379074        -0.828279
 C         0.469677        -1.224715         0.345090
 C         0.609625         0.073208         1.225032
 O         1.047927        -0.098927         2.550341
 C         1.795416        -1.255374         2.833058
 O         2.447233        -1.762780         1.658167
 C         2.023033        -1.344200         0.441134
 H         3.585602         1.245348         0.231309
 H         2.978185         0.791360        -1.411278
 H         2.357745         2.317123        -0.485678
 H        -0.264812         0.351735        -0.941904
 H         0.738810        -1.010044        -1.735836
 H        -0.220317        -2.104753         0.528733
 H        -0.125629         0.984063         1.227868
 H         2.703763        -1.077124         3.444331
 H         0.991205        -1.931981         3.134159
 H         2.742331        -1.780347        -0.220670
