19
Iteration:  3940
 C         2.630770         1.265997        -0.098427
 C         1.695575         0.155489         0.089398
 C         0.661353        -0.460509        -0.926379
 C         0.488140        -1.270181         0.443869
 C         0.638100         0.087858         1.128083
 O         1.134844         0.048139         2.417067
 C         1.707414        -1.286529         2.753272
 O         2.479294        -1.758452         1.680956
 C         1.997044        -1.424035         0.429745
 H         3.479170         1.111161         0.612642
 H         3.194721         1.324126        -1.085587
 H         2.259807         2.249039        -0.014663
 H        -0.269727         0.153254        -1.087337
 H         0.923438        -1.041408        -1.711025
 H        -0.382855        -1.869605         0.511996
 H        -0.222445         0.779541         0.823901
 H         2.317712        -1.087464         3.605766
 H         0.991688        -2.060735         2.799327
 H         2.497226        -1.995475        -0.363372
