19
Iteration:  2764charge 0 multiplicity 1
 C         2.713945         1.264055        -0.084787
 C         1.643554         0.231048         0.030226
 C         0.578165        -0.432207        -0.907550
 C         0.451440        -1.318254         0.320250
 C         0.617165         0.081272         1.147700
 O         1.214798         0.042781         2.477758
 C         1.765315        -1.330662         2.767418
 O         2.484379        -1.774100         1.683029
 C         1.920175        -1.376198         0.427986
 H         3.327485         0.926605         0.828820
 H         3.270798         1.442297        -1.016589
 H         2.336722         2.250379         0.147257
 H        -0.345636         0.209219        -1.245964
 H         0.848509        -0.815615        -1.909709
 H        -0.165845        -2.287099         0.391686
 H        -0.233442         0.681389         1.021101
 H         2.533607        -1.224470         3.598026
 H         0.876565        -1.980292         3.087541
 H         2.522966        -1.913852        -0.396916
