19
Iteration:  4285charge 0 multiplicity 1
 C         2.600171         1.225906        -0.117973
 C         1.771368         0.057454         0.027535
 C         0.719857        -0.434095        -0.944617
 C         0.435249        -1.205893         0.431029
 C         0.663063         0.081915         1.096139
 O         1.187361         0.015868         2.400844
 C         1.594353        -1.205726         2.837064
 O         2.461150        -1.757960         1.708990
 C         1.989566        -1.411942         0.437166
 H         3.228561         1.331901         0.813678
 H         3.298385         1.188514        -0.946795
 H         1.994849         2.138675        -0.327142
 H        -0.089163         0.240815        -1.249730
 H         1.201775        -0.995762        -1.800668
 H        -0.290284        -1.996557         0.540758
 H        -0.098583         0.867162         1.086811
 H         2.220790        -1.159475         3.680842
 H         0.801540        -1.920284         3.098940
 H         2.508731        -2.099175        -0.358376
