19
Iteration:  4176charge 0 multiplicity 1
 C         2.817412         0.978425        -0.173011
 C         1.703122         0.077819         0.076003
 C         0.619115        -0.405396        -0.934304
 C         0.377602        -1.264549         0.332394
 C         0.571554         0.174725         1.153666
 O         0.951994        -0.128958         2.541469
 C         1.711717        -1.269923         2.751930
 O         2.667887        -1.487825         1.693027
 C         1.971084        -1.283808         0.448681
 H         3.460158         0.859003         0.757170
 H         3.367446         0.715925        -1.052137
 H         2.390751         1.989181        -0.357124
 H        -0.002800         0.303799        -1.410740
 H         0.937212        -1.113731        -1.710422
 H        -0.451138        -1.910585         0.497360
 H        -0.081502         1.031664         1.152987
 H         2.239291        -1.086090         3.635035
 H         1.048814        -2.134538         2.776457
 H         2.346901        -1.852389        -0.406595
