19
Iteration:  4102charge 0 multiplicity 1
 C         2.701176         1.320187        -0.146049
 C         1.723429         0.151184        -0.010271
 C         0.701759        -0.491448        -0.976750
 C         0.343696        -1.230373         0.372567
 C         0.601599         0.044411         1.158463
 O         1.221319         0.020548         2.471029
 C         1.627553        -1.237438         2.774628
 O         2.538736        -1.742177         1.728851
 C         1.944544        -1.480015         0.496755
 H         3.322788         1.393901         0.776177
 H         3.298892         1.316105        -1.069712
 H         2.064180         2.174053        -0.322100
 H        -0.036866         0.342786        -1.396046
 H         1.086135        -1.083712        -1.762449
 H        -0.255685        -2.070604         0.477067
 H        -0.208755         0.737454         1.229715
 H         2.075187        -1.146811         3.729197
 H         0.775424        -2.030328         2.866512
 H         2.432251        -1.991109        -0.263540
