19
Iteration:  4293charge 0 multiplicity 1
 C         2.700389         1.251159        -0.113806
 C         1.752296         0.100391         0.012459
 C         0.655606        -0.450745        -0.912647
 C         0.476450        -1.290236         0.400058
 C         0.652715         0.096825         1.100154
 O         1.123151         0.032691         2.388975
 C         1.644084        -1.246058         2.804888
 O         2.483822        -1.772584         1.748463
 C         1.972110        -1.373008         0.433786
 H         3.327159         1.330956         0.772693
 H         3.346330         1.157671        -0.951023
 H         2.150666         2.183644        -0.323038
 H        -0.090601         0.230237        -1.125357
 H         0.926848        -0.958508        -1.882531
 H        -0.367596        -1.925947         0.668385
 H        -0.184276         0.872118         1.026335
 H         2.180115        -1.018142         3.742933
 H         0.792683        -1.910821         2.867591
 H         2.401076        -2.170404        -0.201896
