19
Iteration:  4498charge 0 multiplicity 1
 C         2.863027         1.121086        -0.250092
 C         1.723740         0.168589         0.021999
 C         0.666819        -0.404727        -0.914686
 C         0.447493        -1.306616         0.280610
 C         0.454515         0.006964         1.198892
 O         1.005176        -0.031287         2.544304
 C         1.692167        -1.210200         2.818475
 O         2.601168        -1.586574         1.702755
 C         1.934842        -1.380051         0.511443
 H         3.482872         1.245559         0.686835
 H         3.522843         0.647860        -1.064290
 H         2.560757         2.090667        -0.728537
 H        -0.148794         0.273492        -1.227516
 H         0.967372        -0.882949        -1.897330
 H        -0.344610        -1.988190         0.389455
 H        -0.371602         0.695498         1.144032
 H         2.283270        -1.117199         3.727292
 H         0.945828        -2.053663         2.844811
 H         2.441037        -1.945781        -0.326631
