19
Iteration:   267charge 0 multiplicity 1
 C         2.752474         1.259915        -0.218944
 C         1.722346         0.087592         0.165049
 C         0.607293        -0.348918        -0.899213
 C         0.302349        -1.248254         0.289631
 C         0.655038         0.075687         1.192916
 O         0.946640        -0.104302         2.516234
 C         2.023053        -1.086325         2.771754
 O         2.546239        -1.802404         1.655634
 C         1.831858        -1.531442         0.421702
 H         3.483139         1.366486         0.578291
 H         3.338349         1.146260        -1.117380
 H         2.172273         2.182629        -0.374601
 H        -0.211610         0.357060        -1.205489
 H         0.971258        -0.853018        -1.825150
 H        -0.666552        -1.958680         0.394807
 H        -0.065945         0.910871         1.016403
 H         2.753537        -0.368407         3.286659
 H         1.721765        -1.629690         3.611320
 H         2.311517        -2.143899        -0.293501
