19
Iteration:  3353charge 0 multiplicity 1
 C         2.777625         1.106362        -0.171908
 C         1.750323         0.056708         0.039670
 C         0.626280        -0.374725        -0.921648
 C         0.418376        -1.170686         0.423398
 C         0.632777         0.115695         1.232578
 O         0.959022        -0.091208         2.631965
 C         1.721936        -1.345843         2.684604
 O         2.638129        -1.520855         1.556697
 C         1.929642        -1.382404         0.383169
 H         3.455421         1.185962         0.742165
 H         3.263352         0.896617        -1.135004
 H         2.238173         1.992699        -0.428521
 H        -0.329343         0.253884        -0.927544
 H         0.686202        -0.990513        -1.805297
 H        -0.255526        -1.918954         0.781430
 H        -0.069353         0.984480         1.250289
 H         2.301915        -1.374007         3.587329
 H         1.095607        -2.186003         2.742997
 H         2.212418        -2.090802        -0.371124
