19
Iteration:  1803
 C         2.771582         1.080042        -0.291085
 C         1.617948         0.175974         0.056972
 C         0.480874        -0.295858        -0.845728
 C         0.502800        -1.283253         0.405532
 C         0.607241         0.049815         1.165941
 O         0.998448        -0.121343         2.644044
 C         1.731750        -1.345336         2.735362
 O         2.601639        -1.569281         1.640029
 C         2.056821        -1.320316         0.358783
 H         3.471277         1.164281         0.606326
 H         3.389314         0.716491        -1.190921
 H         2.760453         2.167744        -0.488684
 H        -0.403029         0.397876        -1.027745
 H         0.822697        -0.669568        -1.821585
 H        -0.262770        -2.019988         0.770458
 H        -0.198406         0.836933         1.032431
 H         2.414187        -1.259115         3.640303
 H         1.081732        -2.144095         2.906728
 H         2.524722        -1.857008        -0.503097
