19
Iteration:  2339
 C         2.791412         1.146605        -0.237641
 C         1.691537         0.165209         0.087255
 C         0.608208        -0.431536        -0.868511
 C         0.400221        -1.169532         0.460769
 C         0.649726         0.191123         1.253503
 O         0.947451        -0.189152         2.599453
 C         1.686549        -1.346342         2.676369
 O         2.694815        -1.546300         1.578564
 C         1.975596        -1.374035         0.397240
 H         3.302398         1.370482         0.708310
 H         3.166227         0.721652        -1.165958
 H         2.123380         1.921903        -0.522255
 H        -0.309447         0.198117        -1.240400
 H         0.886067        -1.132781        -1.684098
 H        -0.419414        -1.933643         0.496450
 H        -0.054927         0.976190         1.100472
 H         2.364681        -1.358285         3.547774
 H         1.092254        -2.233787         2.607279
 H         2.371534        -1.919716        -0.423028
