19
Iteration:  2815
 C         2.785813         1.106837        -0.127985
 C         1.705036         0.120676         0.029810
 C         0.564750        -0.368981        -0.895816
 C         0.350858        -1.227612         0.453711
 C         0.601561         0.077492         1.249446
 O         0.979009        -0.154294         2.509970
 C         1.711025        -1.271046         2.706967
 O         2.723625        -1.532003         1.595332
 C         1.927757        -1.400801         0.442612
 H         3.522436         1.086319         0.651594
 H         3.428722         0.973444        -1.156831
 H         2.524238         2.191792        -0.361940
 H        -0.201972         0.363333        -1.258764
 H         0.924479        -0.733391        -1.833565
 H        -0.457637        -1.978886         0.430379
 H        -0.084465         1.028702         1.126116
 H         2.267928        -1.236111         3.594548
 H         1.096768        -2.156120         2.644659
 H         2.408262        -1.982217        -0.326995
