19
Iteration:  3880
 C         2.739859         1.174689        -0.268941
 C         1.703890         0.062738         0.126240
 C         0.569974        -0.318400        -0.875036
 C         0.427237        -1.275369         0.413379
 C         0.605376         0.083054         1.197513
 O         1.052462        -0.002618         2.515137
 C         1.697624        -1.305834         2.709235
 O         2.609170        -1.668876         1.667181
 C         2.028630        -1.398665         0.422624
 H         2.977522         1.507476         0.730356
 H         3.539505         0.754799        -0.821725
 H         2.193925         2.118335        -0.563421
 H        -0.038757         0.501499        -1.213892
 H         0.779472        -0.904495        -1.862049
 H        -0.287252        -2.147349         0.386911
 H        -0.147908         0.817804         0.969573
 H         2.098196        -1.217503         3.750248
 H         0.803862        -2.006668         2.828462
 H         2.662145        -1.930988        -0.324245
