19
Iteration:  4365charge 0 multiplicity 1
 C         2.906530         1.050678        -0.223981
 C         1.759096         0.118095         0.015894
 C         0.641343        -0.454912        -0.948094
 C         0.282854        -1.145186         0.341590
 C         0.611033        -0.021498         1.115087
 O         0.865010        -0.122526         2.589463
 C         1.694571        -1.220903         2.761416
 O         2.719798        -1.498961         1.768435
 C         1.889766        -1.313720         0.424265
 H         3.575491         1.190146         0.662897
 H         3.552101         0.606306        -1.145770
 H         2.511618         2.125408        -0.329580
 H        -0.124721         0.418084        -1.300548
 H         0.892142        -1.149983        -1.735826
 H        -0.384831        -2.026359         0.550475
 H        -0.171037         0.706331         1.136056
 H         2.406273        -0.983004         3.607583
 H         0.952963        -2.034576         2.774088
 H         2.439948        -2.038131        -0.280200
