19
Iteration:  4719charge 0 multiplicity 1
 C         2.746962         1.117870        -0.204168
 C         1.758511         0.092316         0.049741
 C         0.642082        -0.398014        -0.930833
 C         0.336008        -1.232582         0.346030
 C         0.609056         0.061608         1.094262
 O         0.982564        -0.074141         2.520213
 C         1.714080        -1.246923         2.768999
 O         2.655183        -1.543975         1.735206
 C         1.957328        -1.389121         0.507504
 H         3.482065         1.091142         0.652399
 H         3.325417         0.710666        -1.058026
 H         2.510953         2.198174        -0.260152
 H        -0.119231         0.315835        -1.148003
 H         0.887155        -0.967247        -1.872171
 H        -0.463687        -1.931461         0.349996
 H        -0.212096         0.797421         0.973759
 H         2.394528        -0.966992         3.564209
 H         1.039404        -2.165797         2.942968
 H         2.217356        -2.232853        -0.311209
