19
Iteration:    41
 C         2.704990         1.218518        -0.261268
 C         1.753827         0.106204         0.004083
 C         0.526814        -0.430312        -0.950744
 C         0.357884        -1.261251         0.340008
 C         0.614481         0.070131         1.248940
 O         1.146334        -0.019948         2.557500
 C         1.790962        -1.240710         2.805137
 O         2.517342        -1.714957         1.713121
 C         1.963529        -1.336524         0.408481
 H         3.328619         1.442783         0.591426
 H         3.441552         0.972909        -1.085613
 H         2.171475         2.121904        -0.499268
 H        -0.210734         0.401800        -1.158887
 H         0.799070        -0.984157        -1.839496
 H        -0.327918        -2.057878         0.366497
 H        -0.230881         0.779785         1.265006
 H         2.550338        -1.280268         3.574179
 H         1.207703        -2.151650         3.165337
 H         2.535203        -1.983181        -0.347035
