19
Iteration:  1856charge 0 multiplicity 1
 C         2.676886         1.175046        -0.131037
 C         1.638399         0.095344        -0.011916
 C         0.572679        -0.431558        -0.912541
 C         0.394173        -1.180176         0.441615
 C         0.722708         0.147600         1.203208
 O         1.034817        -0.120215         2.555146
 C         1.795217        -1.310821         2.693682
 O         2.638722        -1.637028         1.629888
 C         1.921533        -1.352485         0.386443
 H         3.205316         1.336920         0.837086
 H         3.542945         1.059615        -0.839012
 H         2.299295         2.198559        -0.456021
 H        -0.192313         0.266442        -1.201306
 H         0.888056        -1.062121        -1.734694
 H        -0.392082        -2.034379         0.445452
 H        -0.079265         0.906651         1.278250
 H         2.381574        -1.149982         3.677206
 H         1.037183        -2.137681         2.908443
 H         2.308618        -1.968714        -0.416223
