19
Iteration:  2479charge 0 multiplicity 1
 C         2.904858         1.109174        -0.277034
 C         1.720145         0.182812         0.176733
 C         0.488506        -0.322543        -0.802905
 C         0.491116        -1.327274         0.402128
 C         0.573696         0.013096         1.240140
 O         0.942091        -0.071962         2.577188
 C         1.706905        -1.272519         2.676956
 O         2.622891        -1.634664         1.567003
 C         1.948351        -1.273828         0.331365
 H         3.274883         1.562525         0.617379
 H         3.599974         0.553431        -0.938453
 H         2.495642         1.991924        -0.810543
 H        -0.369790         0.383194        -0.898406
 H         0.876317        -0.688113        -1.648846
 H         0.014100        -2.371092         0.564314
 H        -0.216541         0.734458         1.293895
 H         2.350836        -1.085716         3.534590
 H         1.001793        -2.116631         2.913904
 H         2.360897        -1.946602        -0.408944
