19
Iteration:   538
 C         2.691413         1.275858        -0.322468
 C         1.737790         0.166383         0.059720
 C         0.652376        -0.468717        -0.865126
 C         0.362976        -1.233509         0.429538
 C         0.712143         0.111419         1.242701
 O         0.955901        -0.132995         2.585315
 C         1.867620        -1.274183         2.775432
 O         2.520368        -1.709183         1.565450
 C         1.893679        -1.373536         0.460086
 H         3.349502         1.794078         0.419537
 H         3.367858         0.707962        -0.992201
 H         2.180543         2.103035        -0.890549
 H        -0.106330         0.233066        -1.264422
 H         1.063754        -0.918708        -1.800705
 H        -0.354243        -1.968165         0.637446
 H         0.077478         1.044779         1.252587
 H         2.614999        -0.849917         3.408418
 H         1.218297        -2.055546         3.347188
 H         2.378487        -2.051137        -0.390060
