19
Iteration:   686charge 0 multiplicity 1
 C         2.833020         1.201712        -0.239361
 C         1.653871         0.152854         0.028328
 C         0.479366        -0.384300        -0.849283
 C         0.398984        -1.255262         0.428129
 C         0.594394        -0.000483         1.166803
 O         1.067910        -0.075563         2.479667
 C         1.930457        -1.197037         2.739190
 O         2.483418        -1.744133         1.625335
 C         1.943566        -1.340891         0.438215
 H         3.268583         1.413251         0.785136
 H         3.592835         0.898292        -0.905549
 H         2.427672         2.169568        -0.543419
 H        -0.207713         0.481724        -0.926638
 H         0.888097        -0.869233        -1.771117
 H        -0.365073        -2.055977         0.834909
 H        -0.386182         0.535451         1.189643
 H         2.657269        -0.764629         3.540142
 H         1.265326        -1.875177         3.317623
 H         2.463064        -1.927528        -0.258426
