19
Iteration:  4294
 C         2.720194         1.255757        -0.119589
 C         1.748266         0.111348         0.009756
 C         0.643491        -0.453791        -0.910085
 C         0.473958        -1.301619         0.387712
 C         0.650246         0.096510         1.100394
 O         1.114551         0.038179         2.396235
 C         1.652061        -1.251098         2.791714
 O         2.488869        -1.772995         1.758145
 C         1.969267        -1.374505         0.443296
 H         3.343997         1.354380         0.787635
 H         3.357931         1.128013        -0.945059
 H         2.159584         2.199568        -0.288338
 H        -0.099976         0.242614        -1.100865
 H         0.892999        -0.974640        -1.889842
 H        -0.353859        -1.929112         0.678682
 H        -0.183987         0.864521         1.010575
 H         2.159865        -1.016043         3.707448
 H         0.807500        -1.906140         2.847375
 H         2.409066        -2.184728        -0.223964
