19
Iteration:  1617charge 0 multiplicity 1
 C         2.804012         1.158933        -0.301271
 C         1.724036         0.114444         0.097198
 C         0.560942        -0.313358        -0.806573
 C         0.365533        -1.327953         0.306799
 C         0.503612        -0.055978         1.300459
 O         1.037312         0.011567         2.604736
 C         1.759151        -1.267588         2.720151
 O         2.663030        -1.623645         1.615343
 C         2.002307        -1.328632         0.380477
 H         3.601878         1.008145         0.407916
 H         3.013331         0.805790        -1.349420
 H         2.478752         2.175792        -0.295828
 H        -0.387201         0.329127        -0.800439
 H         0.826683        -0.523374        -1.890544
 H        -0.268832        -2.138421         0.374892
 H        -0.447355         0.507793         1.187164
 H         2.293629        -1.206456         3.710017
 H         0.900821        -1.987172         2.665280
 H         2.586022        -1.916867        -0.397239
