19
Iteration:  1197charge 0 multiplicity 1
 C         2.706428         1.215674        -0.137989
 C         1.706378         0.100510         0.034564
 C         0.515206        -0.507932        -0.926683
 C         0.357442        -1.179136         0.445575
 C         0.663201         0.109641         1.155559
 O         1.024622        -0.114649         2.571748
 C         1.802848        -1.261616         2.723065
 O         2.666035        -1.529076         1.608447
 C         1.949866        -1.429970         0.367687
 H         3.534481         0.894617         0.576280
 H         3.082273         1.260411        -1.149157
 H         2.435406         2.181564         0.247144
 H        -0.243004         0.178058        -1.378305
 H         0.719786        -1.329368        -1.620992
 H        -0.389238        -1.864804         0.769552
 H        -0.025583         0.913768         1.103176
 H         2.483033        -1.159874         3.612657
 H         1.158481        -2.189914         2.940209
 H         2.212994        -2.129757        -0.433116
