19
Iteration:  2057charge 0 multiplicity 1
 C         2.576164         1.249509        -0.062079
 C         1.744008         0.049332         0.020149
 C         0.582588        -0.364882        -0.947564
 C         0.302473        -1.217865         0.358450
 C         0.688271         0.053687         1.123008
 O         1.228661         0.016394         2.556574
 C         1.790273        -1.331718         2.715073
 O         2.583527        -1.640583         1.610235
 C         1.876293        -1.490008         0.456254
 H         3.204820         1.305775         0.878282
 H         3.269345         1.295039        -0.936534
 H         2.080304         2.266840        -0.116099
 H        -0.050076         0.460307        -1.185624
 H         0.831276        -0.936384        -1.828867
 H        -0.508611        -1.900729         0.398648
 H        -0.007046         0.876107         1.299616
 H         2.385905        -1.377725         3.620287
 H         1.033037        -2.121540         2.851443
 H         2.484307        -2.242003        -0.119240
