19
Iteration:  2116charge 0 multiplicity 1
 C         2.777645         1.205198        -0.192901
 C         1.658771         0.166011         0.050209
 C         0.471737        -0.349882        -0.903719
 C         0.425767        -1.250131         0.294839
 C         0.642056         0.052135         1.251146
 O         1.112706        -0.079228         2.557615
 C         1.782769        -1.300454         2.765067
 O         2.569665        -1.724251         1.663327
 C         1.973572        -1.301834         0.381668
 H         3.176264         1.224814         0.810666
 H         3.404256         0.715272        -0.958140
 H         2.166573         2.089602        -0.516087
 H        -0.479796         0.223844        -1.109924
 H         0.893709        -0.931890        -1.809226
 H        -0.175463        -2.183156         0.308244
 H        -0.153356         0.834710         1.338002
 H         2.391977        -0.998293         3.663124
 H         0.931407        -1.993125         2.932552
 H         2.575815        -1.763116        -0.454197
