19
Iteration:  2917charge 0 multiplicity 1
 C         2.649571         1.286700        -0.080057
 C         1.752738         0.159027        -0.041806
 C         0.628265        -0.455774        -0.929800
 C         0.380419        -1.320552         0.405735
 C         0.641875         0.102395         1.170559
 O         1.230610         0.052808         2.524618
 C         1.666551        -1.333599         2.702316
 O         2.493326        -1.713594         1.662794
 C         1.966422        -1.419392         0.422656
 H         3.248796         1.363009         0.891202
 H         3.450003         1.390803        -0.882917
 H         2.028834         2.173252        -0.099577
 H        -0.236654         0.288000        -1.118695
 H         0.858856        -1.075218        -1.797760
 H        -0.451772        -2.123946         0.518209
 H        -0.089124         0.868094         1.113279
 H         2.369347        -1.355833         3.597770
 H         0.928921        -2.097974         2.815114
 H         2.518215        -2.066645        -0.338661
