19
Iteration:   582
 C         2.711455         1.195625        -0.257965
 C         1.676939         0.140287         0.097436
 C         0.530493        -0.361046        -0.832131
 C         0.392101        -1.363386         0.358719
 C         0.669837         0.034709         1.196912
 O         1.206992        -0.011892         2.539479
 C         1.704767        -1.274288         2.702016
 O         2.566528        -1.571196         1.712768
 C         1.958939        -1.436696         0.392935
 H         3.489126         1.272810         0.506168
 H         3.249535         0.932995        -1.200261
 H         2.293268         2.227154        -0.356897
 H        -0.434534         0.118639        -0.961829
 H         0.750368        -0.756594        -1.818387
 H        -0.360335        -2.067340         0.437573
 H        -0.130683         0.795389         1.073534
 H         2.164419        -1.369746         3.649185
 H         0.810816        -1.941270         2.637224
 H         2.498623        -2.085645        -0.396640
