19
Iteration:  1474
 C         2.643238         1.181388        -0.199369
 C         1.740828         0.059596         0.006113
 C         0.542989        -0.364160        -0.945890
 C         0.263448        -1.167408         0.417305
 C         0.674378         0.118147         1.192589
 O         1.026071        -0.082925         2.627362
 C         1.788989        -1.359250         2.698788
 O         2.731833        -1.553461         1.643241
 C         1.967924        -1.459139         0.470958
 H         2.934434         1.508446         0.796035
 H         3.491401         0.827493        -0.890303
 H         2.187242         2.069570        -0.773897
 H        -0.314785         0.275774        -1.196341
 H         0.929293        -0.917137        -1.893862
 H        -0.339105        -2.036676         0.542378
 H         0.101017         1.073278         1.076534
 H         2.347144        -1.437763         3.633981
 H         1.141623        -2.187835         2.581351
 H         2.371161        -2.084146        -0.389896
