19
Iteration:  2227charge 0 multiplicity 1
 C         2.573767         1.214350        -0.066655
 C         1.720499         0.037529         0.045601
 C         0.621533        -0.365648        -0.938927
 C         0.425875        -1.194080         0.359576
 C         0.641325         0.075853         1.170604
 O         1.156195        -0.017533         2.500035
 C         1.773818        -1.220010         2.746534
 O         2.563551        -1.748832         1.649183
 C         1.947111        -1.436621         0.366198
 H         3.263791         1.204302         0.773862
 H         3.098706         1.503959        -0.985834
 H         2.065014         2.161722         0.035791
 H        -0.170523         0.450293        -1.087382
 H         0.917575        -0.929890        -1.835085
 H        -0.259095        -2.102419         0.467284
 H        -0.098655         0.877229         1.213908
 H         2.404231        -1.088366         3.640311
 H         0.993938        -1.953007         3.044280
 H         2.261433        -2.187420        -0.360050
