19
Iteration:  4736
 C         2.815747         1.152207        -0.194966
 C         1.716583         0.129257        -0.015742
 C         0.611483        -0.468531        -0.989756
 C         0.388406        -1.245904         0.379303
 C         0.567863         0.059942         1.164002
 O         1.053997        -0.011645         2.496371
 C         1.722530        -1.240412         2.820064
 O         2.545083        -1.651374         1.767395
 C         1.968993        -1.404536         0.379154
 H         3.470516         1.267221         0.661792
 H         3.346224         1.406421        -1.110305
 H         2.185280         2.044216        -0.035560
 H        -0.194850         0.300201        -1.341453
 H         1.035450        -1.060403        -1.784081
 H        -0.280520        -2.103581         0.735183
 H        -0.110410         0.902841         1.218424
 H         2.290457        -0.996740         3.765199
 H         0.960824        -2.011014         2.793620
 H         2.644038        -1.911872        -0.135326
