19
Iteration:  2138
 C         2.747198         1.187564        -0.278032
 C         1.729233         0.093762         0.124860
 C         0.667393        -0.255401        -0.903971
 C         0.342185        -1.241454         0.426933
 C         0.555292         0.018659         1.176973
 O         1.018317        -0.117927         2.610036
 C         1.823013        -1.375880         2.748789
 O         2.628127        -1.535828         1.624768
 C         1.904695        -1.432175         0.359552
 H         3.302983         1.437241         0.597058
 H         3.340406         0.660226        -1.042925
 H         2.149134         2.021939        -0.736074
 H        -0.127489         0.518657        -0.933505
 H         0.982840        -0.630667        -1.935203
 H        -0.492754        -1.943388         0.622111
 H        -0.226217         0.798165         1.221576
 H         2.415673        -1.138586         3.627145
 H         1.097040        -2.136596         2.875021
 H         2.422804        -2.052278        -0.415047
