19
Iteration:  1065
 C         2.709474         1.293078        -0.222271
 C         1.623044         0.208230         0.064891
 C         0.472875        -0.405379        -0.853093
 C         0.507808        -1.325461         0.364216
 C         0.647733         0.103028         1.198094
 O         1.107521         0.051788         2.550265
 C         1.753807        -1.260663         2.767768
 O         2.582625        -1.820909         1.612212
 C         1.980127        -1.462738         0.393149
 H         3.299979         1.513328         0.724412
 H         3.503549         0.723693        -0.750069
 H         2.407129         2.183570        -0.733134
 H        -0.468467         0.214815        -1.030279
 H         0.832974        -0.742712        -1.816062
 H        -0.168019        -2.125911         0.654155
 H        -0.259878         0.669870         1.239791
 H         2.496220        -1.013877         3.589629
 H         0.980255        -1.935648         2.980051
 H         2.430471        -1.968431        -0.517225
