19
Iteration:  4725
 C         2.777959         1.164152        -0.190976
 C         1.716143         0.050412        -0.013344
 C         0.632626        -0.398922        -0.939360
 C         0.359773        -1.223511         0.360492
 C         0.592638         0.069777         1.154403
 O         0.988213        -0.055170         2.464731
 C         1.728500        -1.268484         2.800581
 O         2.645259        -1.573626         1.759396
 C         1.959461        -1.402921         0.459501
 H         3.473312         1.001822         0.616034
 H         3.341109         0.891814        -1.090478
 H         2.394991         2.176122        -0.261503
 H        -0.068057         0.421623        -1.318628
 H         0.950786        -1.013685        -1.770035
 H        -0.511847        -1.939546         0.495964
 H        -0.228396         0.780213         1.067577
 H         2.314252        -1.108465         3.740773
 H         1.025301        -2.024154         3.103917
 H         2.401639        -1.992734        -0.250287
