19
Iteration:  1638
 C         2.762638         1.073555        -0.276597
 C         1.667214         0.190145         0.046168
 C         0.464663        -0.270851        -0.812092
 C         0.530624        -1.284236         0.361175
 C         0.631342         0.082169         1.224200
 O         0.981992        -0.183591         2.547756
 C         1.789555        -1.284849         2.757800
 O         2.562462        -1.596142         1.639130
 C         2.028880        -1.302446         0.373902
 H         3.476504         1.104734         0.515339
 H         3.112685         0.521805        -1.163823
 H         2.476913         2.080585        -0.547544
 H        -0.444120         0.360617        -0.970928
 H         0.828063        -0.731770        -1.781969
 H        -0.130484        -2.076473         0.654390
 H        -0.166359         0.821964         1.316500
 H         2.478078        -0.928511         3.587194
 H         1.061207        -2.109522         3.109883
 H         2.528891        -1.992488        -0.310036
