19
Iteration:  4548charge 0 multiplicity 1
 C         2.848685         1.102797        -0.145052
 C         1.802108         0.042616         0.015722
 C         0.555776        -0.413399        -0.973111
 C         0.351266        -1.244064         0.412148
 C         0.563666         0.049442         1.159599
 O         0.974936        -0.039062         2.483172
 C         1.691473        -1.299589         2.736167
 O         2.671804        -1.451203         1.781989
 C         1.956526        -1.387821         0.421983
 H         3.549857         0.994436         0.642476
 H         3.349369         0.884052        -1.076353
 H         2.451222         2.085499        -0.263483
 H        -0.201557         0.321831        -1.342633
 H         0.812897        -0.948993        -1.866104
 H        -0.385951        -2.147277         0.567488
 H        -0.228649         0.810007         0.953579
 H         2.168675        -1.125591         3.773679
 H         0.928297        -2.104747         2.569170
 H         2.409733        -2.100698        -0.230069
