19
Iteration:  4520
 C         2.868653         1.035962        -0.200325
 C         1.756161         0.110576         0.070904
 C         0.580468        -0.459223        -0.917716
 C         0.397391        -1.278499         0.401052
 C         0.600705         0.126869         1.196453
 O         0.877184        -0.088787         2.554464
 C         1.707125        -1.256228         2.726999
 O         2.587069        -1.451692         1.692898
 C         2.006959        -1.346361         0.383379
 H         3.522361         0.973569         0.730719
 H         3.481712         0.605480        -1.065555
 H         2.660220         2.072979        -0.560428
 H        -0.205566         0.120479        -1.406782
 H         1.088048        -0.961713        -1.807776
 H        -0.335506        -2.022795         0.615511
 H        -0.160321         0.870179         1.046829
 H         2.243931        -1.149922         3.642105
 H         1.030907        -2.162444         2.841297
 H         2.661679        -1.870615        -0.422334
