19
Iteration:   929charge 0 multiplicity 1
 C         2.700168         1.296431        -0.280940
 C         1.751400         0.139387         0.025906
 C         0.618966        -0.434098        -0.836225
 C         0.403031        -1.234854         0.425209
 C         0.613692         0.141172         1.212232
 O         1.084216        -0.098931         2.500517
 C         1.816703        -1.301333         2.744928
 O         2.590083        -1.718288         1.671446
 C         1.867930        -1.432106         0.437908
 H         3.228412         1.667490         0.585988
 H         3.356404         1.212979        -1.181002
 H         1.915461         2.038231        -0.612241
 H        -0.196683         0.303560        -1.023646
 H         0.937102        -0.993952        -1.814419
 H        -0.423417        -2.064604         0.555934
 H        -0.119820         0.985232         1.238555
 H         2.422928        -1.030855         3.583184
 H         1.007477        -2.077484         2.983883
 H         2.260092        -2.050415        -0.319340
