19
Iteration:  1095
 C         2.541040         1.251835        -0.187123
 C         1.720089         0.026073         0.001872
 C         0.599132        -0.452417        -0.931256
 C         0.303812        -1.204214         0.379695
 C         0.648162         0.153056         1.209487
 O         1.240123         0.000384         2.545652
 C         1.738325        -1.399624         2.726129
 O         2.657120        -1.628220         1.641287
 C         1.956635        -1.412221         0.484084
 H         2.822832         1.505706         0.826501
 H         3.425404         0.845437        -0.782857
 H         2.058091         2.070819        -0.738079
 H         0.077384         0.552000        -1.048271
 H         0.865117        -0.998938        -1.868777
 H        -0.483756        -2.071130         0.605082
 H        -0.041234         1.007403         1.211362
 H         2.226179        -1.374737         3.723293
 H         0.812922        -2.071723         2.736127
 H         2.240270        -1.953238        -0.355528
