19
Iteration:  3456
 C         2.669226         1.204802        -0.120602
 C         1.673968         0.045689         0.021411
 C         0.616298        -0.338283        -0.916783
 C         0.357482        -1.198963         0.393944
 C         0.667891         0.073863         1.164839
 O         1.143299        -0.039787         2.516289
 C         1.737728        -1.301513         2.769586
 O         2.633730        -1.613479         1.644040
 C         1.926632        -1.465438         0.410502
 H         3.106513         1.241295         0.842697
 H         3.402735         0.749565        -0.778605
 H         2.043161         2.107600        -0.358788
 H        -0.189216         0.362271        -1.126988
 H         0.947701        -0.993722        -1.809430
 H        -0.615792        -1.796329         0.281463
 H        -0.115418         0.950353         1.276364
 H         2.393027        -1.170320         3.646943
 H         1.014364        -2.119039         2.752537
 H         2.231882        -2.103605        -0.471714
