19
Iteration:  2715
 C         2.644268         1.307245        -0.179395
 C         1.772348         0.122760         0.049585
 C         0.625444        -0.380082        -0.993204
 C         0.375642        -1.204188         0.339706
 C         0.728443         0.110609         1.238712
 O         1.123919        -0.085681         2.580248
 C         1.733339        -1.391660         2.743771
 O         2.545272        -1.641305         1.701676
 C         1.928871        -1.468105         0.415570
 H         3.199012         1.666862         0.700070
 H         3.299683         1.052133        -1.104198
 H         2.005141         2.137048        -0.658228
 H        -0.247245         0.230635        -1.240123
 H         0.857827        -0.914453        -1.950564
 H        -0.406384        -1.872742         0.629992
 H        -0.034772         0.937729         1.012467
 H         2.314880        -1.417514         3.675082
 H         0.862278        -2.080127         2.830801
 H         2.184087        -2.251951        -0.282198
