19
Iteration:   440
 C         2.728827         1.161786        -0.130031
 C         1.689169         0.079452         0.006403
 C         0.513640        -0.466570        -0.905899
 C         0.295888        -1.211844         0.370673
 C         0.619919         0.093832         1.162600
 O         1.170497        -0.033835         2.492759
 C         1.797717        -1.301443         2.702928
 O         2.654090        -1.574613         1.682057
 C         1.940037        -1.406428         0.467448
 H         3.502246         1.197389         0.664049
 H         3.230422         1.060035        -1.097165
 H         2.228236         2.165189         0.037281
 H        -0.222804         0.326495        -1.111909
 H         0.694219        -1.070346        -1.824809
 H        -0.486740        -1.920454         0.496912
 H        -0.212454         0.824380         1.357535
 H         2.295575        -1.017439         3.609838
 H         0.961846        -2.046520         2.749419
 H         2.236499        -2.151624        -0.275392
