19
Iteration:  4013
 C         2.891766         1.087033        -0.197152
 C         1.709611         0.167103        -0.011901
 C         0.614191        -0.449687        -0.897383
 C         0.403556        -1.204996         0.366970
 C         0.462203         0.131064         1.199256
 O         0.867119        -0.057646         2.620874
 C         1.812294        -1.354428         2.723186
 O         2.676770        -1.564348         1.650209
 C         1.931784        -1.367008         0.446884
 H         3.446783         1.308090         0.762158
 H         3.635299         0.757269        -0.901064
 H         2.558873         2.075042        -0.618019
 H        -0.207848         0.323739        -1.216733
 H         0.939997        -1.028247        -1.824112
 H        -0.156165        -2.119418         0.555376
 H        -0.393719         0.754966         0.962073
 H         2.578834        -1.100709         3.438587
 H         1.044254        -2.174781         2.813484
 H         2.374010        -1.932282        -0.366651
