19
Iteration:  1623charge 0 multiplicity 1
 C         2.809027         1.103143        -0.317901
 C         1.682411         0.152141         0.157343
 C         0.512882        -0.281349        -0.816239
 C         0.411032        -1.342037         0.349491
 C         0.563105        -0.056139         1.261081
 O         1.000821         0.002494         2.588689
 C         1.742571        -1.263410         2.748708
 O         2.657794        -1.637640         1.632407
 C         2.007222        -1.314098         0.332583
 H         3.676313         1.044990         0.382465
 H         3.138769         0.839101        -1.309054
 H         2.430108         2.179620        -0.396141
 H        -0.260066         0.455008        -0.816139
 H         0.701990        -0.601134        -1.826268
 H        -0.299844        -2.301356         0.342734
 H        -0.309588         0.556886         1.033777
 H         2.373912        -1.223945         3.614427
 H         1.046915        -2.125976         2.833463
 H         2.658421        -1.621722        -0.476020
