19
Iteration:  4271
 C         2.565576         1.297743        -0.140197
 C         1.741912         0.052082         0.087419
 C         0.789441        -0.465698        -1.002971
 C         0.331271        -1.252749         0.227242
 C         0.679007         0.091850         1.160758
 O         1.261832         0.116732         2.551281
 C         1.666228        -1.253565         2.755830
 O         2.452940        -1.772108         1.751475
 C         1.923075        -1.499156         0.478629
 H         3.104557         1.593468         0.755889
 H         3.230213         1.282702        -0.977486
 H         1.805575         2.079100        -0.393516
 H         0.233508         0.233894        -1.534247
 H         1.185569        -1.205127        -1.765217
 H        -0.496841        -1.968501         0.408458
 H        -0.047347         0.965015         1.126083
 H         2.335144        -1.170067         3.637639
 H         0.756694        -1.842307         2.853588
 H         2.536683        -2.114991        -0.256344
