19
Iteration:  4035
 C         2.760193         1.094806        -0.210934
 C         1.705290         0.136830         0.093253
 C         0.638401        -0.332157        -0.923033
 C         0.368746        -1.310279         0.309717
 C         0.644116         0.003187         1.200149
 O         1.048597        -0.114332         2.536857
 C         1.650643        -1.249786         2.797935
 O         2.606221        -1.531665         1.693200
 C         1.960601        -1.345051         0.404525
 H         3.293343         1.501046         0.703025
 H         3.538755         0.629427        -0.793134
 H         2.407033         1.942812        -0.823992
 H        -0.237868         0.375237        -1.248580
 H         0.967938        -0.900091        -1.817434
 H        -0.445833        -1.985223         0.532687
 H        -0.056623         0.801509         1.107531
 H         2.378162        -1.047824         3.542617
 H         0.901023        -2.088483         2.946665
 H         2.474371        -1.846344        -0.390605
