19
Iteration:   173
 C         2.873252         1.138031         0.037705
 C         1.721427         0.090789         0.076156
 C         0.556942        -0.420962        -0.962236
 C         0.257170        -1.213243         0.275006
 C         0.552356        -0.018710         1.137819
 O         0.915185        -0.263907         2.573633
 C         2.228613        -0.724563         2.671027
 O         2.372902        -1.804418         1.622482
 C         1.869409        -1.474041         0.387596
 H         3.419382         1.098790         0.975316
 H         3.567333         1.027996        -0.885254
 H         2.397555         2.106937        -0.009329
 H        -0.075365         0.485055        -1.147661
 H         0.754204        -0.987800        -1.844181
 H        -0.520415        -1.833033         0.427495
 H        -0.191686         0.717705         1.354329
 H         2.860756         0.121612         2.611758
 H         2.416856        -1.068973         3.750578
 H         2.466558        -2.107608        -0.357088
