19
Iteration:  4521
 C         2.864226         1.035822        -0.201039
 C         1.756964         0.113347         0.062817
 C         0.577852        -0.458810        -0.906767
 C         0.404965        -1.283227         0.395627
 C         0.598967         0.135380         1.196080
 O         0.877646        -0.095348         2.552306
 C         1.706118        -1.254932         2.731254
 O         2.588813        -1.447610         1.690170
 C         2.007138        -1.361170         0.389193
 H         3.509280         0.944919         0.743358
 H         3.481339         0.609853        -1.053178
 H         2.666845         2.087526        -0.555269
 H        -0.191000         0.109564        -1.396645
 H         1.106356        -0.947813        -1.824384
 H        -0.352273        -1.970482         0.636634
 H        -0.157404         0.898555         1.042801
 H         2.258425        -1.124784         3.623737
 H         1.004686        -2.170794         2.789509
 H         2.640841        -1.842318        -0.391916
