19
Iteration:  1041charge 0 multiplicity 1
 C         2.712361         1.130674        -0.241074
 C         1.675572         0.111556         0.068743
 C         0.539123        -0.353024        -0.857326
 C         0.402477        -1.231147         0.352894
 C         0.568528        -0.010965         1.235034
 O         1.105781        -0.040461         2.510933
 C         1.863384        -1.234801         2.773473
 O         2.523154        -1.707888         1.627598
 C         1.990016        -1.305795         0.412774
 H         3.308707         1.279929         0.655468
 H         3.509794         0.903161        -1.015247
 H         2.134150         2.033528        -0.388750
 H        -0.258421         0.396709        -1.191743
 H         0.885419        -0.892799        -1.770011
 H        -0.331556        -2.115715         0.527522
 H        -0.204447         0.740363         1.262840
 H         2.596220        -0.913709         3.524696
 H         1.168049        -1.986653         3.116302
 H         2.543533        -1.736293        -0.378223
