19
Iteration:   654
 C         2.657144         1.092247        -0.174582
 C         1.660328         0.052494         0.039311
 C         0.572321        -0.336413        -0.878523
 C         0.341778        -1.279443         0.273062
 C         0.655286         0.059700         1.210389
 O         1.060701         0.036093         2.602169
 C         1.946653        -1.129194         2.747295
 O         2.555394        -1.707163         1.619648
 C         1.929363        -1.460211         0.403703
 H         3.350957         1.062702         0.725805
 H         3.272796         1.024238        -1.024942
 H         2.183416         2.087882        -0.109376
 H        -0.086369         0.488569        -1.210875
 H         1.021532        -0.697323        -1.876195
 H        -0.544128        -2.039281         0.601411
 H        -0.260188         0.669611         1.099319
 H         2.798725        -0.899255         3.516269
 H         1.250223        -1.980293         3.176170
 H         2.432330        -1.956219        -0.400795
