19
Iteration:  2813
 C         2.772896         1.102635        -0.124530
 C         1.711248         0.106275         0.028314
 C         0.574115        -0.368511        -0.874632
 C         0.350744        -1.246893         0.443675
 C         0.591635         0.104645         1.251297
 O         0.976403        -0.137934         2.496979
 C         1.720309        -1.274009         2.687540
 O         2.731272        -1.540689         1.590875
 C         1.934343        -1.407956         0.448590
 H         3.454907         0.970616         0.741371
 H         3.338640         0.972648        -1.135026
 H         2.442342         2.194686        -0.316749
 H        -0.123494         0.320711        -1.208959
 H         0.957180        -0.661567        -1.859680
 H        -0.446346        -1.940744         0.463868
 H        -0.067417         1.127128         1.180682
 H         2.218078        -1.188352         3.643413
 H         1.106807        -2.153748         2.607667
 H         2.366866        -1.963512        -0.348426
