19
Iteration:  4959
 C         2.656868         1.288628        -0.199068
 C         1.751387         0.085097         0.006670
 C         0.683201        -0.421007        -0.831516
 C         0.445870        -1.269515         0.368317
 C         0.637032         0.061521         1.144570
 O         1.164222         0.026990         2.429010
 C         1.612134        -1.193723         2.743731
 O         2.452398        -1.839705         1.722974
 C         1.983599        -1.390808         0.495436
 H         3.580536         1.197141         0.412839
 H         3.144345         1.335543        -1.216826
 H         2.219219         2.292771        -0.068568
 H        -0.002752         0.398304        -0.997126
 H         1.036763        -1.089425        -1.787248
 H        -0.267508        -2.056378         0.516316
 H        -0.121975         0.873087         1.116454
 H         2.169625        -0.923130         3.617089
 H         0.960102        -1.967822         2.961990
 H         2.606579        -1.969689        -0.230444
