19
Iteration:  1991
 C         2.822389         1.136410        -0.302634
 C         1.690365         0.109427         0.118441
 C         0.563701        -0.217834        -0.936282
 C         0.382355        -1.276597         0.381871
 C         0.569485         0.014830         1.212547
 O         1.071625        -0.151041         2.606307
 C         1.798006        -1.385458         2.750980
 O         2.622482        -1.478899         1.646482
 C         1.880371        -1.347602         0.446922
 H         3.511451         1.288287         0.578917
 H         3.182190         0.678186        -1.239918
 H         2.372851         2.055323        -0.678463
 H        -0.240233         0.455602        -1.214392
 H         0.852396        -0.792786        -1.792616
 H        -0.203705        -2.154131         0.524844
 H        -0.270636         0.736222         1.175576
 H         2.321536        -1.420110         3.661995
 H         1.009501        -2.212866         2.798019
 H         2.315325        -1.931066        -0.418787
