19
Iteration:  1020
 C         2.746961         1.257805        -0.169892
 C         1.634518         0.170944         0.026834
 C         0.646298        -0.385445        -0.944312
 C         0.285838        -1.285359         0.387704
 C         0.601414         0.057336         1.176273
 O         1.086935        -0.080507         2.601079
 C         1.903187        -1.272176         2.751124
 O         2.659825        -1.554958         1.649200
 C         1.817347        -1.552309         0.409262
 H         3.526986         1.146352         0.572066
 H         3.199784         0.858081        -1.139627
 H         2.294124         2.210718        -0.283091
 H        -0.263402         0.312919        -1.115868
 H         0.833970        -0.870194        -1.901997
 H        -0.567473        -2.041004         0.354345
 H         0.052189         0.977119         1.114497
 H         2.486336        -0.990522         3.655167
 H         1.173327        -2.005484         2.917475
 H         2.126386        -2.302596        -0.322675
