19
Iteration:  1499
 C         2.737339         1.281018        -0.214061
 C         1.718811         0.170694         0.031043
 C         0.570290        -0.410323        -0.816647
 C         0.389773        -1.243139         0.433848
 C         0.604863         0.062285         1.220438
 O         1.074019        -0.126594         2.512439
 C         1.779097        -1.258411         2.716066
 O         2.574523        -1.626664         1.577739
 C         1.942009        -1.449773         0.447729
 H         3.039743         1.643826         0.808444
 H         3.563240         0.682045        -0.748246
 H         2.507966         2.107778        -0.866448
 H        -0.298381         0.227832        -1.111315
 H         0.819437        -1.016138        -1.654993
 H        -0.382604        -2.007994         0.602771
 H        -0.256067         0.797650         1.223905
 H         2.577517        -1.104250         3.495071
 H         1.135734        -2.158560         2.939909
 H         2.444222        -1.932148        -0.459272
