19
Iteration:  1801charge 0 multiplicity 1
 C         2.763116         1.081089        -0.278212
 C         1.639519         0.184940         0.037628
 C         0.476651        -0.306778        -0.865064
 C         0.498404        -1.243047         0.430382
 C         0.615941         0.065319         1.159063
 O         0.996868        -0.139614         2.639882
 C         1.731380        -1.346885         2.749946
 O         2.600618        -1.568027         1.637013
 C         2.052299        -1.347966         0.361509
 H         3.453015         1.187277         0.567061
 H         3.348867         0.720502        -1.189739
 H         2.655150         2.241785        -0.446952
 H        -0.338969         0.361453        -1.049208
 H         0.860720        -0.718447        -1.791789
 H        -0.310658        -2.016045         0.768466
 H        -0.201987         0.778853         1.006539
 H         2.499523        -1.250540         3.625413
 H         1.071196        -2.180786         2.920539
 H         2.505802        -1.825490        -0.485109
