19
Iteration:  3221
 C         2.679903         1.220855        -0.238930
 C         1.658223         0.172754         0.092741
 C         0.639357        -0.361557        -0.836617
 C         0.423256        -1.299479         0.366135
 C         0.694294        -0.027335         1.210068
 O         1.180277        -0.018896         2.568702
 C         1.679948        -1.241287         2.697368
 O         2.487476        -1.723068         1.665260
 C         1.965368        -1.357641         0.353497
 H         3.498863         1.323853         0.537788
 H         3.276623         1.046870        -1.187276
 H         2.370241         2.244026        -0.371340
 H        -0.235697         0.383833        -1.040118
 H         1.241912        -0.741690        -1.628782
 H        -0.392988        -2.020972         0.394373
 H        -0.223763         0.669749         1.324199
 H         2.161431        -1.353823         3.691691
 H         0.741740        -2.018693         2.775484
 H         2.429345        -1.923744        -0.473314
