19
Iteration:  2312
 C         2.877913         1.204484        -0.239331
 C         1.676579         0.163551        -0.039043
 C         0.500629        -0.360525        -0.840187
 C         0.388194        -1.279807         0.374638
 C         0.591331         0.044841         1.208888
 O         1.086229        -0.118105         2.576198
 C         1.727328        -1.389929         2.719591
 O         2.616199        -1.502874         1.675856
 C         1.961426        -1.349988         0.438830
 H         3.082009         1.386552         0.797076
 H         3.593624         0.666566        -0.855581
 H         2.382397         2.114053        -0.634888
 H        -0.303371         0.308932        -0.907475
 H         0.607577        -0.859877        -1.806017
 H        -0.392558        -2.082608         0.414596
 H        -0.286604         0.734984         1.090858
 H         2.335576        -1.513298         3.625066
 H         0.930120        -2.188374         2.543662
 H         2.570479        -1.999963        -0.283011
