19
Iteration:  3438
 C         2.672535         1.283261        -0.093024
 C         1.748466         0.076228         0.012601
 C         0.591289        -0.389656        -0.916628
 C         0.290175        -1.258085         0.330599
 C         0.617218         0.121689         1.152230
 O         1.220068        -0.035354         2.472642
 C         1.800677        -1.297602         2.733486
 O         2.552645        -1.749406         1.699210
 C         1.909853        -1.406500         0.458789
 H         3.340320         1.635838         0.752008
 H         3.441794         1.313425        -0.978902
 H         1.894069         2.029286        -0.157943
 H        -0.096035         0.382912        -1.360654
 H         0.795639        -0.902351        -1.800437
 H        -0.234976        -2.015445         0.860480
 H        -0.184214         0.788851         1.124324
 H         2.361746        -1.177742         3.650550
 H         0.840791        -1.947261         2.791943
 H         2.354897        -2.093153        -0.275403
