19
Iteration:   319charge 0 multiplicity 1
 C         2.831863         1.149454        -0.043401
 C         1.593169         0.169696        -0.043720
 C         0.424628        -0.476099        -0.928422
 C         0.393437        -1.346167         0.428553
 C         0.609721         0.109101         1.106266
 O         1.209072         0.033771         2.506082
 C         1.767514        -1.282597         2.702333
 O         2.627369        -1.625566         1.633043
 C         1.907525        -1.360945         0.459519
 H         3.197607         1.269878         1.044624
 H         3.635331         0.749732        -0.631323
 H         2.519436         2.196260        -0.411705
 H        -0.382571         0.226896        -0.939923
 H         0.794114        -0.890780        -1.944120
 H        -0.279343        -2.236232         0.420269
 H        -0.271326         0.880398         1.128013
 H         2.398367        -1.096676         3.606096
 H         0.897834        -1.966181         3.050096
 H         2.212686        -2.193262        -0.233216
