19
Iteration:   380charge 0 multiplicity 1
 C         2.737465         1.235364        -0.411076
 C         1.664720         0.253512        -0.026613
 C         0.577327        -0.362491        -0.916704
 C         0.389463        -1.226183         0.435999
 C         0.669170         0.068581         1.209485
 O         1.072456        -0.090824         2.571159
 C         1.770931        -1.285413         2.851061
 O         2.571379        -1.813403         1.754014
 C         1.951553        -1.348446         0.417094
 H         3.501087         1.408579         0.336767
 H         3.210369         1.044710        -1.398952
 H         2.208325         2.139620        -0.623820
 H        -0.223985         0.363253        -1.207610
 H         1.063333        -0.718821        -1.806501
 H        -0.410845        -1.991898         0.607327
 H        -0.241866         0.587917         1.163573
 H         2.399061        -1.038955         3.713819
 H         1.216567        -2.218456         3.152813
 H         2.283668        -2.115078        -0.349456
