19
Iteration:   820charge 0 multiplicity 1
 C         2.737644         1.235219        -0.204001
 C         1.735631         0.080342         0.016615
 C         0.575621        -0.408104        -0.905849
 C         0.231827        -1.196360         0.365488
 C         0.661544         0.013373         1.236063
 O         1.087490        -0.040130         2.529891
 C         1.780283        -1.219103         2.749392
 O         2.696062        -1.629258         1.603690
 C         1.867016        -1.446515         0.464060
 H         3.429362         1.134476         0.611656
 H         3.316172         1.171357        -1.113843
 H         2.268996         2.198420         0.062820
 H        -0.243287         0.266102        -1.210377
 H         0.850342        -1.218268        -1.672977
 H        -0.681645        -1.955966         0.439341
 H        -0.048051         0.830670         1.200847
 H         2.436078        -1.105376         3.564368
 H         1.229285        -2.132908         3.000655
 H         2.269076        -2.165635        -0.189952
