19
Iteration:  3643
 C         2.854739         1.167616        -0.153530
 C         1.685625         0.143025        -0.026452
 C         0.547514        -0.464360        -0.857597
 C         0.367499        -1.238250         0.370192
 C         0.645571         0.092743         1.209223
 O         0.989526        -0.127148         2.529242
 C         1.768553        -1.267593         2.749214
 O         2.590390        -1.544785         1.610459
 C         1.908102        -1.418819         0.441211
 H         3.391599         1.476824         0.731965
 H         3.675553         0.881367        -0.762686
 H         2.537800         2.119478        -0.562989
 H        -0.309326         0.244702        -0.917156
 H         0.892679        -0.922682        -1.805995
 H        -0.382817        -2.006306         0.526486
 H        -0.034825         1.023009         1.239611
 H         2.464571        -1.049740         3.537487
 H         1.176789        -2.142867         2.816555
 H         2.406010        -2.030363        -0.332940
