19
Iteration:  3830charge 0 multiplicity 1
 C         2.793520         1.054463        -0.178381
 C         1.715400         0.055351         0.066143
 C         0.615607        -0.396682        -0.931307
 C         0.265494        -1.207428         0.334763
 C         0.565129         0.049812         1.223029
 O         1.018493        -0.069886         2.623056
 C         1.757180        -1.324131         2.683684
 O         2.707157        -1.482582         1.649030
 C         1.981644        -1.310576         0.402666
 H         3.277706         1.198388         0.852788
 H         3.466641         0.468495        -0.853415
 H         2.276866         1.930517        -0.599205
 H        -0.166349         0.386434        -1.284487
 H         0.924106        -1.016642        -1.734339
 H        -0.674116        -1.772347         0.397067
 H        -0.262863         0.871121         1.128707
 H         2.243354        -1.054582         3.632300
 H         0.960525        -2.114206         2.640406
 H         2.455425        -2.085280        -0.241945
