19
Iteration:  1337charge 0 multiplicity 1
 C         2.753103         1.133217        -0.171194
 C         1.596272         0.236267         0.132180
 C         0.449733        -0.415843        -0.871449
 C         0.433818        -1.348296         0.421064
 C         0.635567        -0.022028         1.177447
 O         1.193438        -0.065458         2.485757
 C         1.712648        -1.282821         2.711986
 O         2.567216        -1.545874         1.648227
 C         1.999283        -1.286486         0.373932
 H         3.360346         1.241705         0.785269
 H         3.305810         0.648734        -1.029057
 H         2.515636         2.110632        -0.533255
 H        -0.224799         0.408320        -1.328766
 H         0.897937        -1.017524        -1.662365
 H        -0.220694        -2.304747         0.222538
 H        -0.251604         0.583819         1.343834
 H         2.429341        -1.200565         3.610921
 H         0.913863        -1.930886         2.922260
 H         2.572924        -1.903815        -0.267235
