19
Iteration:  2546charge 0 multiplicity 1
 C         2.611585         1.245050        -0.183779
 C         1.746355         0.124981         0.016590
 C         0.584396        -0.408287        -0.851086
 C         0.399534        -1.264950         0.446300
 C         0.703094         0.113326         1.199570
 O         1.068826         0.016279         2.532995
 C         1.670292        -1.299243         2.698851
 O         2.598014        -1.778247         1.622510
 C         2.035503        -1.384343         0.372922
 H         3.299857         1.173903         0.692566
 H         3.295390         1.279018        -1.012364
 H         2.360769         2.266197        -0.079790
 H        -0.198054         0.309071        -1.136221
 H         1.023622        -0.865554        -1.665852
 H        -0.336427        -2.078287         0.745000
 H        -0.001526         0.916498         1.141330
 H         2.104948        -1.307341         3.660541
 H         0.811859        -2.004547         2.691904
 H         2.397700        -2.003007        -0.425674
