19
Iteration:  4819charge 0 multiplicity 1
 C         2.773988         1.205997        -0.201702
 C         1.813434         0.113463         0.011274
 C         0.651461        -0.480237        -0.898116
 C         0.440567        -1.240410         0.414412
 C         0.602227         0.082931         1.192739
 O         0.953057        -0.007685         2.543510
 C         1.701336        -1.223686         2.762275
 O         2.560771        -1.662051         1.615224
 C         1.939845        -1.412845         0.473920
 H         3.390804         1.491596         0.647122
 H         3.499745         0.886290        -0.983176
 H         2.236336         2.062232        -0.640346
 H        -0.080667         0.228902        -1.201356
 H         0.996316        -0.971376        -1.814096
 H        -0.263442        -2.047135         0.629814
 H        -0.153807         0.873267         1.015155
 H         2.169328        -1.171606         3.732545
 H         1.021424        -2.068179         2.908920
 H         2.320187        -2.093076        -0.394943
