19
Iteration:  4774
 C         2.659646         1.246623        -0.176015
 C         1.718826         0.102365         0.098591
 C         0.691985        -0.387592        -0.938516
 C         0.405389        -1.325524         0.398704
 C         0.596850         0.049534         1.117731
 O         1.231978         0.089384         2.440163
 C         1.601164        -1.191217         2.660615
 O         2.538125        -1.770827         1.788311
 C         2.009038        -1.446968         0.489867
 H         3.472392         1.185303         0.560723
 H         3.045512         1.382449        -1.191642
 H         1.951029         2.029951         0.087444
 H        -0.168312         0.138656        -1.195491
 H         1.095935        -0.870595        -1.855488
 H        -0.343024        -2.085895         0.506448
 H        -0.273086         0.734225         1.006261
 H         2.008895        -1.232808         3.652411
 H         0.759904        -1.814272         2.855652
 H         2.378410        -2.114195        -0.396515
