19
Iteration:  3639
 C         2.799380         1.194416        -0.143094
 C         1.735337         0.135223        -0.026148
 C         0.530241        -0.460773        -0.854297
 C         0.367417        -1.227948         0.360480
 C         0.645709         0.105336         1.187024
 O         1.002822        -0.116033         2.505746
 C         1.771019        -1.271469         2.787858
 O         2.595475        -1.570801         1.601273
 C         1.940145        -1.423733         0.444181
 H         3.343964         1.264168         0.838859
 H         3.671415         0.901880        -0.791624
 H         2.545868         2.262675        -0.593719
 H        -0.289406         0.198764        -0.909488
 H         0.908079        -0.942807        -1.791974
 H        -0.398661        -2.036914         0.627761
 H         0.020200         1.005769         1.198185
 H         2.348680        -0.992902         3.713543
 H         1.121840        -2.192188         2.850757
 H         2.115537        -2.075687        -0.436109
