19
Iteration:  3560
 C         2.681008         1.287009        -0.186198
 C         1.711981         0.162322        -0.009661
 C         0.569476        -0.440886        -0.870340
 C         0.408700        -1.224037         0.360003
 C         0.664598         0.150360         1.093523
 O         1.147023        -0.019759         2.529423
 C         1.695371        -1.342501         2.758202
 O         2.578036        -1.806198         1.724896
 C         1.959302        -1.398164         0.453709
 H         3.480989         1.221448         0.628143
 H         3.024505         1.337444        -1.273733
 H         2.150468         2.250734         0.002058
 H        -0.188790         0.302184        -1.192199
 H         0.768801        -1.006761        -1.732084
 H        -0.233337        -2.072578         0.496060
 H        -0.005000         0.958199         1.047593
 H         2.257831        -1.168073         3.682728
 H         0.958978        -2.071020         3.051536
 H         2.338374        -1.855074        -0.474023
