19
Iteration:   854charge 0 multiplicity 1
 C         2.743377         1.087889        -0.144384
 C         1.657194         0.114626         0.076360
 C         0.451817        -0.429768        -0.866419
 C         0.410355        -1.303736         0.358372
 C         0.631657         0.069707         1.237377
 O         1.124647         0.055322         2.538494
 C         1.731448        -1.248511         2.706161
 O         2.636399        -1.654619         1.606364
 C         2.017325        -1.324100         0.392116
 H         3.278688         1.025140         0.762041
 H         3.460901         0.719297        -0.924288
 H         2.452201         2.104539        -0.383494
 H        -0.516341         0.097908        -0.999561
 H         0.665135        -0.969795        -1.804872
 H        -0.349632        -2.174524         0.434424
 H        -0.078453         0.859503         1.136718
 H         2.222108        -1.054939         3.592875
 H         0.863444        -1.922725         2.716405
 H         2.546733        -1.668947        -0.467331
