19
Iteration:  2575
 C         2.679317         1.302963        -0.081470
 C         1.680034         0.168919         0.085935
 C         0.554059        -0.384058        -0.903893
 C         0.351577        -1.372803         0.241469
 C         0.595127        -0.044015         1.177068
 O         1.319795         0.023065         2.409333
 C         1.723313        -1.259393         2.769755
 O         2.463255        -1.695783         1.701924
 C         1.984919        -1.397419         0.443201
 H         3.458179         1.018542         0.586502
 H         3.162408         1.307622        -1.135442
 H         2.544146         2.369989         0.169668
 H        -0.232878         0.427913        -1.101561
 H         0.955464        -0.850605        -1.858276
 H        -0.441031        -2.142510         0.338292
 H        -0.287459         0.624730         1.428607
 H         2.316408        -1.233562         3.698610
 H         0.879480        -1.914426         3.006022
 H         2.732461        -1.999797        -0.208226
