19
Iteration:  4575charge 0 multiplicity 1
 C         2.689261         1.187958        -0.155904
 C         1.746527         0.121139         0.045670
 C         0.674913        -0.429317        -0.946179
 C         0.455904        -1.335136         0.364992
 C         0.627853         0.064212         1.135217
 O         1.082926         0.062642         2.511110
 C         1.669341        -1.202799         2.787014
 O         2.515682        -1.687077         1.708226
 C         1.950496        -1.379627         0.457580
 H         3.485521         0.967688         0.638995
 H         3.200461         0.876995        -1.122685
 H         2.376667         2.264120        -0.049635
 H        -0.240738         0.085665        -1.200868
 H         1.178272        -0.969815        -1.848094
 H        -0.215447        -2.141134         0.301233
 H        -0.235570         0.696956         0.995489
 H         2.284782        -1.034231         3.598864
 H         0.872784        -1.887206         2.761744
 H         2.377381        -2.163380        -0.346005
