19
Iteration:  1774
 C         2.717102         1.310144        -0.264999
 C         1.784488         0.091108         0.061933
 C         0.630958        -0.444195        -0.910611
 C         0.198312        -1.207434         0.380796
 C         0.592372         0.094598         1.221017
 O         1.078072        -0.130787         2.572221
 C         1.833795        -1.334714         2.717734
 O         2.651257        -1.616805         1.657530
 C         1.854321        -1.431380         0.475041
 H         3.475778         1.459799         0.541900
 H         3.299308         1.296083        -1.154580
 H         2.170874         2.263620        -0.104325
 H        -0.015524         0.433735        -1.254685
 H         1.171446        -1.017071        -1.716852
 H        -0.543057        -1.969315         0.420666
 H         0.215370         1.115997         1.039925
 H         2.528559        -1.228345         3.522322
 H         1.003404        -2.215172         2.759589
 H         2.121326        -2.104765        -0.401134
