19
Iteration:  1550charge 0 multiplicity 1
 C         2.634649         1.278702        -0.091988
 C         1.689973         0.145745         0.047645
 C         0.601030        -0.373734        -0.860730
 C         0.401609        -1.373262         0.383033
 C         0.607583        -0.023614         1.177280
 O         1.207527         0.064816         2.468654
 C         1.775276        -1.260462         2.735446
 O         2.580873        -1.709126         1.650069
 C         1.904373        -1.430925         0.386948
 H         3.289862         1.397210         0.748454
 H         3.199230         1.142315        -1.044313
 H         2.089620         2.270832        -0.232313
 H        -0.230233         0.324403        -1.083055
 H         1.047511        -0.713906        -1.889224
 H        -0.388318        -2.046302         0.661903
 H        -0.193905         0.750095         1.121983
 H         2.479086        -1.265754         3.581858
 H         0.908953        -1.951151         2.797440
 H         2.250540        -2.134207        -0.400061
