19
Iteration:  4781
 C         2.649999         1.263064        -0.156485
 C         1.756660        -0.000320         0.012888
 C         0.660620        -0.415118        -0.980682
 C         0.448593        -1.271071         0.343161
 C         0.574903         0.059077         1.103788
 O         1.229556         0.068950         2.458934
 C         1.593595        -1.223507         2.752827
 O         2.574218        -1.765235         1.770831
 C         1.958929        -1.375654         0.548407
 H         3.476229         1.320642         0.569715
 H         3.022984         1.307643        -1.171690
 H         2.004860         2.137864        -0.004354
 H        -0.236045         0.297631        -1.107323
 H         1.101317        -0.905708        -1.879189
 H        -0.381589        -1.994442         0.498571
 H        -0.221798         0.773166         1.222931
 H         2.232111        -1.226488         3.649813
 H         0.597136        -1.880236         2.655919
 H         2.269859        -2.113532        -0.102492
