19
Iteration:  4430charge 0 multiplicity 1
 C         2.592610         1.279084        -0.113022
 C         1.739713         0.104257         0.053905
 C         0.715053        -0.543846        -0.981681
 C         0.425097        -1.212162         0.388764
 C         0.649563         0.138876         1.062412
 O         1.248259         0.021772         2.431669
 C         1.572082        -1.245376         2.776423
 O         2.516763        -1.747126         1.757533
 C         1.973145        -1.396197         0.524743
 H         3.198102         1.386096         0.809346
 H         3.372930         1.096879        -0.970860
 H         2.056246         2.217932        -0.413849
 H        -0.232561        -0.005625        -1.391026
 H         1.101519        -1.146951        -1.789990
 H        -0.353911        -2.032355         0.502419
 H        -0.202623         0.821878         1.062336
 H         2.099583        -1.201310         3.795564
 H         0.705523        -1.930188         2.672497
 H         2.449824        -2.078986        -0.344988
