19
Iteration:  3718charge 0 multiplicity 1
 C         2.669507         1.254011        -0.240131
 C         1.763487         0.079157        -0.062172
 C         0.600256        -0.413632        -0.886328
 C         0.442707        -1.257497         0.422413
 C         0.697405         0.142733         1.197380
 O         1.082428        -0.026640         2.589315
 C         1.666458        -1.293382         2.702458
 O         2.551808        -1.670389         1.683314
 C         1.964857        -1.434848         0.419760
 H         3.208477         1.355808         0.691286
 H         3.525270         1.271189        -0.898477
 H         2.243952         2.324333        -0.227839
 H        -0.225530         0.160535        -1.179854
 H         0.818019        -1.091475        -1.730868
 H        -0.433445        -1.920140         0.592369
 H        -0.185639         0.850468         1.283348
 H         2.272710        -1.393961         3.597571
 H         1.001285        -2.191192         2.613198
 H         2.408105        -2.114711        -0.248852
