19
Iteration:  2033
 C         2.771205         1.224393        -0.177325
 C         1.709397         0.168816         0.086475
 C         0.497985        -0.387289        -0.877106
 C         0.427038        -1.253360         0.413571
 C         0.604702         0.078617         1.194541
 O         1.049223        -0.046295         2.516616
 C         1.780235        -1.318990         2.750225
 O         2.594843        -1.744330         1.607609
 C         1.934207        -1.344960         0.344161
 H         3.476833         1.447476         0.641081
 H         3.359358         1.033902        -1.101010
 H         2.299992         2.162367        -0.357742
 H        -0.263960         0.345368        -1.085005
 H         0.885569        -0.796708        -1.732632
 H        -0.198123        -2.127650         0.649248
 H        -0.159209         0.827905         1.310968
 H         2.451215        -1.090018         3.507689
 H         1.176225        -2.127719         3.171758
 H         2.401462        -2.019031        -0.315518
