19
Iteration:  4174charge 0 multiplicity 1
 C         2.820980         0.989462        -0.162853
 C         1.689533         0.098384         0.064699
 C         0.596302        -0.410689        -0.954047
 C         0.398499        -1.262772         0.338497
 C         0.600888         0.201509         1.158518
 O         0.931277        -0.135417         2.538854
 C         1.732468        -1.259426         2.744342
 O         2.661616        -1.501328         1.694951
 C         1.969628        -1.307448         0.461761
 H         3.440343         0.813936         0.729270
 H         3.351074         0.773423        -1.057883
 H         2.463448         2.026334        -0.390665
 H        -0.042906         0.287065        -1.373979
 H         0.991055        -1.150358        -1.775357
 H        -0.468091        -1.967495         0.476735
 H        -0.161289         1.041345         1.181647
 H         2.261965        -1.144129         3.750146
 H         1.033187        -2.120411         2.822159
 H         2.377529        -1.937818        -0.416153
