19
Iteration:   678charge 0 multiplicity 1
 C         2.815688         1.211967        -0.180823
 C         1.731737         0.153292         0.053906
 C         0.489870        -0.369829        -0.819328
 C         0.398557        -1.301564         0.386380
 C         0.552333         0.022856         1.167517
 O         1.066367        -0.068021         2.495396
 C         1.917606        -1.105234         2.760922
 O         2.509367        -1.777937         1.656905
 C         1.911120        -1.365959         0.359809
 H         3.533056         1.452827         0.635792
 H         3.447110         0.787368        -0.962611
 H         2.365253         2.160788        -0.579542
 H        -0.381978         0.257962        -0.976974
 H         0.640823        -0.865556        -1.859815
 H        -0.258845        -2.225688         0.760154
 H        -0.247952         0.779382         1.143008
 H         2.713141        -0.828916         3.494851
 H         1.278279        -1.995981         3.207677
 H         2.327146        -1.920995        -0.545994
