19
Iteration:  2647charge 0 multiplicity 1
 C         2.747814         1.068105        -0.184649
 C         1.657759         0.107426         0.032098
 C         0.593849        -0.345947        -0.928661
 C         0.346274        -1.218301         0.317426
 C         0.604133        -0.012643         1.210259
 O         1.021853        -0.069704         2.606002
 C         1.820770        -1.339236         2.704828
 O         2.599697        -1.530009         1.690311
 C         1.960448        -1.324500         0.386723
 H         3.318044         1.189211         0.851149
 H         3.546039         0.822047        -0.882150
 H         2.589409         2.123421        -0.545730
 H        -0.122386         0.418267        -0.959726
 H         0.776141        -0.708380        -1.980198
 H        -0.395300        -2.009633         0.308607
 H        -0.156251         0.954498         1.275794
 H         2.498657        -1.242423         3.621058
 H         1.115632        -2.168470         2.891465
 H         2.541949        -1.984658        -0.281316
