19
Iteration:  4431charge 0 multiplicity 1
 C         2.588746         1.287043        -0.110319
 C         1.734288         0.102683         0.051782
 C         0.712829        -0.541358        -0.981438
 C         0.432382        -1.215599         0.391791
 C         0.663444         0.137020         1.059261
 O         1.243356         0.023903         2.428568
 C         1.574449        -1.249349         2.783585
 O         2.516587        -1.746329         1.756383
 C         1.961698        -1.402729         0.520078
 H         3.211246         1.408127         0.811181
 H         3.377360         1.074184        -0.965634
 H         2.071112         2.242924        -0.405942
 H        -0.230339        -0.010467        -1.405423
 H         1.128317        -1.182750        -1.785169
 H        -0.349181        -2.001989         0.517459
 H        -0.179866         0.816569         1.092525
 H         2.084549        -1.193547         3.789378
 H         0.718207        -1.912656         2.632347
 H         2.437007        -2.076984        -0.319876
