19
Iteration:  4278charge 0 multiplicity 1
 C         2.566414         1.251060        -0.144398
 C         1.755654         0.055823         0.048264
 C         0.773158        -0.443319        -0.986985
 C         0.355066        -1.189533         0.329254
 C         0.676941         0.070442         1.123279
 O         1.248698         0.055134         2.495986
 C         1.587613        -1.206925         2.773603
 O         2.453076        -1.749578         1.720195
 C         1.985907        -1.502472         0.482427
 H         3.033447         1.552697         0.800166
 H         3.334211         1.078036        -0.986368
 H         1.815156         2.051181        -0.119028
 H         0.007817         0.328107        -1.442424
 H         1.245810        -1.126489        -1.648070
 H        -0.274253        -2.098978         0.474801
 H        -0.015099         0.899331         1.071165
 H         2.394688        -1.181672         3.586989
 H         0.767391        -1.914023         3.147878
 H         2.490353        -1.884277        -0.355922
