19
Iteration:  4258charge 0 multiplicity 1
 C         2.620755         1.381529        -0.167589
 C         1.784848         0.087952         0.063449
 C         0.769919        -0.514067        -1.016589
 C         0.367269        -1.310828         0.288341
 C         0.642462         0.149693         1.192326
 O         1.214710         0.114408         2.473814
 C         1.716611        -1.243448         2.831384
 O         2.501310        -1.832743         1.746235
 C         1.851103        -1.475657         0.458442
 H         3.121347         1.797694         0.683916
 H         3.411687         1.038359        -0.915925
 H         1.925357         2.219606        -0.393583
 H        -0.133966         0.152660        -1.159073
 H         1.422743        -0.914997        -1.798586
 H        -0.549243        -1.963895         0.084045
 H        -0.217471         0.897764         1.149603
 H         2.058097        -1.552967         3.923414
 H         0.774764        -1.825225         2.873353
 H         2.137877        -2.243654        -0.269155
