19
Iteration:  1053charge 0 multiplicity 1
 C         2.684232         1.176840        -0.204265
 C         1.655600         0.172306         0.008462
 C         0.552157        -0.389846        -0.874790
 C         0.430678        -1.328747         0.392785
 C         0.552539         0.102653         1.227644
 O         1.088464         0.020725         2.583489
 C         1.822939        -1.213714         2.722497
 O         2.553314        -1.846574         1.647654
 C         2.048325        -1.281979         0.356708
 H         3.194879         1.389191         0.760010
 H         3.319585         0.752673        -1.052766
 H         2.444002         2.118238        -0.663953
 H        -0.319090         0.377280        -0.746761
 H         0.631764        -0.861463        -1.849108
 H        -0.265076        -2.242571         0.374919
 H        -0.171456         0.871709         1.115673
 H         2.587577        -1.148777         3.553975
 H         1.159198        -1.954397         3.069520
 H         2.625721        -1.924398        -0.312655
