19
Iteration:   966
 C         2.786423         1.177081        -0.237692
 C         1.643485         0.164012         0.019796
 C         0.480320        -0.417458        -0.869408
 C         0.422888        -1.363415         0.307430
 C         0.538094         0.068042         1.266193
 O         1.210178         0.070992         2.603081
 C         1.719459        -1.268868         2.696235
 O         2.639692        -1.686003         1.704637
 C         1.961759        -1.336449         0.365275
 H         3.519865         1.207862         0.629535
 H         3.380205         1.082504        -1.210524
 H         2.245710         2.092008        -0.136793
 H        -0.406764         0.276004        -1.047242
 H         0.768541        -0.792001        -1.835685
 H        -0.195172        -2.283659         0.308214
 H        -0.486381         0.440426         1.346955
 H         2.210015        -1.362827         3.721505
 H         0.799155        -2.015984         2.653262
 H         2.381012        -2.056725        -0.428167
