19
Iteration:  3992charge 0 multiplicity 1
 C         2.888386         1.120895        -0.147822
 C         1.671135         0.130151         0.077190
 C         0.562178        -0.473129        -0.881281
 C         0.349669        -1.208139         0.428321
 C         0.615673         0.042135         1.168064
 O         0.934868        -0.149350         2.487176
 C         1.734775        -1.207654         2.735186
 O         2.615204        -1.515372         1.638911
 C         1.990147        -1.358246         0.402077
 H         3.631865         1.084216         0.699421
 H         3.420412         0.812067        -1.037363
 H         2.609103         2.185442        -0.277771
 H        -0.268822         0.281745        -1.212398
 H         1.028127        -0.938168        -1.747954
 H        -0.351936        -2.008344         0.599160
 H        -0.146934         0.823285         1.148448
 H         2.331707        -1.003212         3.618043
 H         1.149313        -2.142238         2.610141
 H         2.479515        -1.993009        -0.302815
