19
Iteration:  2397
 C         2.657252         1.276264        -0.062094
 C         1.723834         0.174983         0.063053
 C         0.527715        -0.417559        -0.891552
 C         0.440078        -1.391603         0.385255
 C         0.656213         0.063112         1.203739
 O         1.159951         0.097112         2.478833
 C         1.731895        -1.258941         2.721514
 O         2.476238        -1.850808         1.641602
 C         2.025802        -1.370515         0.336290
 H         3.561328         1.308589         0.560552
 H         3.199695         1.379290        -0.956607
 H         2.191589         2.257600         0.059782
 H        -0.267136         0.312365        -1.030545
 H         0.736563        -0.887036        -1.934985
 H        -0.130163        -2.244403         0.524594
 H        -0.082191         0.896648         1.188967
 H         2.403130        -1.080496         3.514143
 H         0.893343        -1.888575         3.022018
 H         2.595167        -1.894101        -0.457075
