19
Iteration:  3244charge 0 multiplicity 1
 C         2.608773         1.298343        -0.133439
 C         1.713059         0.066811         0.083524
 C         0.596427        -0.425166        -0.952785
 C         0.419713        -1.232719         0.357989
 C         0.613898         0.139926         1.137372
 O         1.280282         0.025740         2.527723
 C         1.649863        -1.369509         2.720149
 O         2.562846        -1.757131         1.683116
 C         1.954093        -1.428540         0.444496
 H         3.431329         1.565152         0.598244
 H         3.176832         1.286820        -1.057283
 H         2.095891         2.206786        -0.215453
 H        -0.080422         0.463097        -1.094941
 H         0.965514        -0.944182        -1.795983
 H        -0.369512        -1.954628         0.494795
 H        -0.207934         0.994000         1.191502
 H         2.218676        -1.379253         3.669937
 H         0.748072        -2.129461         2.847063
 H         2.304258        -1.985596        -0.403566
