19
Iteration:  3182
 C         2.829390         1.177458        -0.254923
 C         1.716253         0.138602         0.024512
 C         0.538219        -0.335255        -0.841022
 C         0.332991        -1.190531         0.403463
 C         0.634623         0.069600         1.177956
 O         0.983496        -0.180363         2.562798
 C         1.704231        -1.335909         2.779838
 O         2.696495        -1.560657         1.624883
 C         1.919463        -1.396205         0.400091
 H         3.377567         1.075780         0.684634
 H         3.460464         0.741292        -1.001294
 H         2.486226         2.232132        -0.441728
 H        -0.044809         0.439560        -1.191745
 H         0.937505        -0.825387        -1.782094
 H        -0.555465        -1.759429         0.670303
 H        -0.091488         0.855022         1.133475
 H         2.386902        -1.112456         3.580381
 H         1.124228        -2.221102         2.902377
 H         2.368972        -2.086595        -0.340976
