19
Iteration:   909
 C         2.669756         1.335423        -0.268836
 C         1.750631         0.085555         0.003060
 C         0.524485        -0.468366        -0.943842
 C         0.260297        -1.139297         0.420716
 C         0.701777         0.069358         1.183267
 O         1.013438        -0.027483         2.669594
 C         1.782140        -1.279963         2.772832
 O         2.631212        -1.742320         1.616757
 C         2.064084        -1.432896         0.401472
 H         3.114288         1.549757         0.653681
 H         3.538961         1.059319        -0.961189
 H         2.305110         2.261082        -0.698479
 H        -0.083217         0.364082        -1.412997
 H         0.935825        -1.226215        -1.679812
 H        -0.638876        -1.828532         0.815714
 H        -0.103843         0.751708         1.195904
 H         2.532027        -1.161716         3.511466
 H         1.149317        -2.261546         2.909491
 H         2.332057        -2.213375        -0.241876
