19
Iteration:  2484
 C         2.892051         1.111405        -0.295135
 C         1.683061         0.154905         0.182627
 C         0.495706        -0.314179        -0.818149
 C         0.463014        -1.274925         0.358873
 C         0.577437         0.034949         1.258969
 O         0.939235        -0.091857         2.583845
 C         1.719677        -1.283642         2.714267
 O         2.625813        -1.632200         1.572387
 C         2.025894        -1.249811         0.356534
 H         3.397248         1.455202         0.665216
 H         3.535130         0.457971        -0.879465
 H         2.354972         1.798026        -0.957659
 H        -0.437148         0.251436        -0.842091
 H         0.823421        -0.781568        -1.876323
 H        -0.137454        -2.118108         0.567976
 H        -0.310292         0.720736         1.147047
 H         2.374302        -1.249532         3.602770
 H         1.052303        -2.147753         2.894434
 H         2.457402        -1.923893        -0.420508
