19
Iteration:  3928
 C         2.662172         1.311166        -0.118394
 C         1.700916         0.140512        -0.043980
 C         0.677967        -0.519299        -0.933651
 C         0.441843        -1.221941         0.428133
 C         0.635463         0.133040         1.111842
 O         1.136075        -0.006424         2.476161
 C         1.689124        -1.257322         2.747703
 O         2.525524        -1.844060         1.686295
 C         1.955355        -1.351211         0.456724
 H         3.322649         1.320890         0.782865
 H         3.165572         1.293944        -1.109120
 H         2.006212         2.153263         0.061225
 H        -0.189256         0.135655        -1.280764
 H         1.087748        -0.959272        -1.766378
 H        -0.102832        -2.097589         0.735520
 H        -0.135654         0.991353         1.288033
 H         2.312711        -1.205416         3.637756
 H         0.829430        -1.834931         3.056314
 H         2.400819        -1.998749        -0.296732
