19
Iteration:  3292
 C         2.700593         1.145017        -0.120934
 C         1.714378         0.148133         0.102405
 C         0.602679        -0.345223        -0.899721
 C         0.324560        -1.317966         0.327298
 C         0.641397         0.012093         1.197291
 O         1.115282        -0.001927         2.563468
 C         1.756205        -1.222076         2.727727
 O         2.581234        -1.675754         1.571633
 C         1.941477        -1.386878         0.416741
 H         3.316035         1.465660         0.672868
 H         3.532678         0.852598        -0.784573
 H         2.291363         2.165074        -0.433307
 H        -0.262444         0.227947        -1.066382
 H         0.978856        -0.871115        -1.843283
 H        -0.453379        -2.076058         0.594766
 H        -0.113765         0.836510         1.204167
 H         2.408248        -1.176513         3.634491
 H         0.928795        -2.025863         2.760791
 H         2.488518        -1.936867        -0.417182
