19
Iteration:  2751charge 0 multiplicity 1
 C         2.633577         1.284633        -0.035994
 C         1.668216         0.117702         0.075974
 C         0.586888        -0.387747        -0.953518
 C         0.448180        -1.235186         0.343251
 C         0.609089         0.062286         1.158146
 O         1.177596         0.063444         2.437133
 C         1.764164        -1.278166         2.757502
 O         2.500804        -1.882170         1.665738
 C         2.025877        -1.365771         0.419726
 H         3.545532         1.349199         0.522797
 H         3.047162         1.058083        -1.102666
 H         2.152300         2.265791        -0.008126
 H        -0.323777         0.352392        -1.060422
 H         0.994697        -0.986852        -1.748011
 H        -0.411526        -1.949572         0.566712
 H        -0.146523         0.754767         1.265058
 H         2.389718        -1.147374         3.622132
 H         0.883084        -1.999884         2.931520
 H         2.619968        -1.958318        -0.325196
