19
Iteration:  1022charge 0 multiplicity 1
 C         2.748023         1.257098        -0.172815
 C         1.639604         0.178495         0.045499
 C         0.635745        -0.378260        -0.948043
 C         0.291095        -1.297663         0.383005
 C         0.611358         0.050838         1.172674
 O         1.102386        -0.092643         2.589659
 C         1.893079        -1.258342         2.763321
 O         2.645239        -1.557463         1.646894
 C         1.817284        -1.540315         0.400694
 H         3.560056         1.174906         0.614755
 H         3.115768         0.829009        -1.112050
 H         2.322529         2.211985        -0.368015
 H        -0.248079         0.296900        -1.101148
 H         0.881064        -0.853355        -1.866495
 H        -0.500170        -1.978392         0.403745
 H        -0.061155         0.937372         1.104821
 H         2.514564        -0.948214         3.674843
 H         1.126291        -2.040288         3.011837
 H         2.130221        -2.353041        -0.381568
