19
Iteration:  1222charge 0 multiplicity 1
 C         2.752089         1.230592        -0.142694
 C         1.624439         0.079781         0.004530
 C         0.477404        -0.466918        -0.926344
 C         0.351376        -1.301868         0.395213
 C         0.611444         0.054190         1.202837
 O         1.171495        -0.009956         2.531305
 C         1.738012        -1.289148         2.708274
 O         2.651578        -1.606982         1.682946
 C         2.025095        -1.340492         0.403195
 H         3.380042         1.172230         0.741652
 H         3.331170         1.229554        -1.052967
 H         2.261713         2.244087        -0.004906
 H        -0.291170         0.263775        -1.000247
 H         0.568512        -0.971945        -1.932386
 H        -0.297187        -2.132113         0.511273
 H        -0.155925         0.889891         1.146893
 H         2.263838        -1.338754         3.625894
 H         0.921503        -2.025225         2.750507
 H         2.332188        -2.036373        -0.459034
