19
Iteration:  2586charge 0 multiplicity 1
 C         2.682807         1.261598        -0.049903
 C         1.592961         0.111267         0.046068
 C         0.638661        -0.366015        -0.942360
 C         0.380109        -1.312420         0.275592
 C         0.617636        -0.048175         1.197915
 O         1.275921         0.038909         2.474068
 C         1.734871        -1.205500         2.851184
 O         2.525598        -1.748608         1.667915
 C         1.908331        -1.374875         0.366803
 H         3.439894         0.932796         0.607753
 H         3.095368         1.256874        -1.130806
 H         2.169762         2.167484         0.277249
 H        -0.272461         0.260162        -1.250079
 H         1.197323        -0.709373        -1.871296
 H        -0.357713        -2.138222         0.340313
 H        -0.173794         0.773326         1.111885
 H         2.445115        -1.128028         3.680295
 H         0.899182        -1.893360         2.975741
 H         2.505879        -1.942658        -0.462299
