19
Iteration:  2839
 C         2.815350         1.121937        -0.272830
 C         1.742503         0.183100         0.014780
 C         0.563197        -0.400986        -0.878784
 C         0.449318        -1.299518         0.278015
 C         0.554100         0.090029         1.288818
 O         1.011728        -0.091974         2.633527
 C         1.778976        -1.416737         2.801671
 O         2.518431        -1.539019         1.648253
 C         1.946369        -1.284242         0.366661
 H         3.344777         1.226972         0.709100
 H         3.608582         0.751722        -1.111138
 H         2.518285         2.087834        -0.686317
 H        -0.295973         0.381992        -1.103549
 H         0.887468        -0.579945        -1.888236
 H        -0.347863        -2.132440         0.463544
 H        -0.209886         0.893910         1.235651
 H         2.505843        -1.321197         3.633261
 H         1.117588        -2.287109         2.921336
 H         2.618581        -1.830558        -0.362648
