19
Iteration:  2005charge 0 multiplicity 1
 C         2.788897         1.073024        -0.314757
 C         1.629775         0.247514         0.078246
 C         0.554093        -0.309399        -0.848462
 C         0.429045        -1.255982         0.343676
 C         0.544637         0.001863         1.306284
 O         1.034407        -0.110342         2.584275
 C         1.736302        -1.324512         2.766153
 O         2.622994        -1.645419         1.633711
 C         1.985553        -1.264186         0.329630
 H         3.568686         1.232739         0.445602
 H         3.391452         0.605245        -1.096605
 H         2.553208         2.164126        -0.582501
 H        -0.288241         0.388858        -1.062168
 H         1.070457        -0.707750        -1.818170
 H        -0.309844        -2.052340         0.420321
 H        -0.295660         0.717077         1.460318
 H         2.457132        -1.143440         3.647316
 H         1.131089        -2.213804         3.018389
 H         2.612259        -1.901261        -0.352900
