19
Iteration:  4997
 C         2.771347         1.090219        -0.219142
 C         1.735340         0.073413        -0.001410
 C         0.681951        -0.452257        -0.883621
 C         0.335108        -1.208778         0.370708
 C         0.648155         0.107889         1.213470
 O         1.058814        -0.033139         2.575012
 C         1.636256        -1.301356         2.776544
 O         2.566960        -1.489085         1.634168
 C         1.948798        -1.428317         0.440372
 H         3.279658         1.112177         0.746014
 H         3.431963         0.900070        -1.043892
 H         2.329505         2.081873        -0.314772
 H         0.021354         0.357979        -1.338760
 H         1.062597        -0.998683        -1.758566
 H        -0.278964        -2.136739         0.316584
 H        -0.045395         0.942386         1.100343
 H         2.278198        -1.326300         3.689486
 H         0.847235        -2.129800         2.780105
 H         2.410039        -1.994552        -0.387943
