19
Iteration:  3143charge 0 multiplicity 1
 C         2.791915         1.080291        -0.137333
 C         1.635072         0.165586         0.050419
 C         0.552861        -0.331705        -0.886736
 C         0.295542        -1.260882         0.329743
 C         0.585014         0.064629         1.188619
 O         1.075039        -0.054132         2.553010
 C         1.722312        -1.301579         2.757173
 O         2.685029        -1.581026         1.621283
 C         2.012974        -1.388810         0.402133
 H         3.364744         1.037150         0.794538
 H         3.566769         0.793388        -0.923329
 H         2.756530         2.148737        -0.365893
 H        -0.342958         0.390951        -1.109025
 H         0.797964        -0.854402        -1.836558
 H        -0.405472        -2.100864         0.497819
 H        -0.284636         0.797969         1.259434
 H         2.284180        -1.258288         3.706449
 H         0.975671        -2.145085         2.689893
 H         2.413329        -1.956787        -0.455533
