19
Iteration:  1710
 C         2.758221         1.286196        -0.088528
 C         1.657416         0.162048         0.062609
 C         0.387857        -0.422884        -0.919940
 C         0.436150        -1.255381         0.391110
 C         0.632830        -0.020410         1.185685
 O         1.253427         0.029866         2.464554
 C         1.688950        -1.257699         2.706759
 O         2.553200        -1.737126         1.677937
 C         2.021858        -1.415645         0.359445
 H         3.176187         1.467442         0.949129
 H         3.512557         0.997205        -0.801329
 H         2.347466         2.347406        -0.398681
 H        -0.504475         0.177637        -0.905690
 H         0.707306        -0.845303        -1.872787
 H        -0.080362        -2.297321         0.449262
 H        -0.167712         0.702067         1.328224
 H         2.230637        -1.187385         3.624667
 H         0.807983        -1.842903         2.827407
 H         2.505355        -2.101832        -0.355648
