19
Iteration:  3863charge 0 multiplicity 1
 C         2.829537         1.151959        -0.188894
 C         1.749002         0.186011        -0.011751
 C         0.522758        -0.432037        -0.852952
 C         0.401562        -1.294311         0.360885
 C         0.615780         0.068032         1.213084
 O         1.010488        -0.050507         2.577878
 C         1.673497        -1.294842         2.675450
 O         2.625513        -1.622715         1.688820
 C         2.005717        -1.309633         0.406125
 H         3.410882         1.630159         0.660181
 H         3.603236         0.615219        -0.833721
 H         2.638903         2.034266        -0.818187
 H        -0.502809         0.092173        -1.045721
 H         0.741430        -0.848408        -1.784123
 H        -0.413166        -1.904174         0.728381
 H        -0.327110         0.738244         1.043729
 H         2.157601        -1.265630         3.669058
 H         1.075649        -2.215615         2.801761
 H         2.301861        -1.987041        -0.414042
