19
Iteration:  4192
 C         2.846935         1.057720        -0.183157
 C         1.701484         0.105714         0.098157
 C         0.692659        -0.397389        -0.919094
 C         0.271096        -1.196999         0.373442
 C         0.552191        -0.012937         1.203367
 O         0.997891        -0.027297         2.515046
 C         1.701526        -1.281743         2.691505
 O         2.633749        -1.446032         1.674239
 C         1.973295        -1.431022         0.451864
 H         3.545671         1.201214         0.628132
 H         3.430319         0.657366        -1.079301
 H         2.572895         2.041932        -0.600739
 H        -0.134615         0.377427        -1.092437
 H         1.183835        -0.859083        -1.796015
 H        -0.480396        -2.036237         0.409120
 H        -0.339010         0.695275         1.140680
 H         2.179829        -1.389309         3.736069
 H         0.942924        -2.108653         2.733404
 H         2.553359        -2.101143        -0.202852
