19
Iteration:  1699charge 0 multiplicity 1
 C         2.668785         1.195651        -0.082621
 C         1.674720         0.104654         0.000855
 C         0.507515        -0.359194        -0.868383
 C         0.388814        -1.325522         0.386465
 C         0.612021         0.110555         1.180358
 O         1.220575         0.015290         2.481163
 C         1.734024        -1.315635         2.726396
 O         2.600315        -1.697117         1.646012
 C         1.974488        -1.353054         0.404219
 H         3.154805         1.422633         0.906558
 H         3.518889         0.939690        -0.707068
 H         2.184326         2.156937        -0.530360
 H        -0.268196         0.342922        -1.166281
 H         0.797858        -0.891966        -1.779550
 H        -0.367220        -2.186584         0.689400
 H        -0.224747         0.810478         1.074057
 H         2.316242        -1.338597         3.621916
 H         0.990987        -2.070727         2.764035
 H         2.478623        -1.947803        -0.382613
