19
Iteration:  3012charge 0 multiplicity 1
 C         2.799932         1.083194        -0.200904
 C         1.691048         0.121223         0.055733
 C         0.554465        -0.277300        -0.892088
 C         0.398532        -1.231917         0.352402
 C         0.519648         0.051943         1.227926
 O         1.037064        -0.105363         2.526959
 C         1.708044        -1.351485         2.718124
 O         2.722237        -1.503147         1.741384
 C         1.958058        -1.396156         0.382442
 H         3.513190         1.289422         0.562262
 H         3.334127         0.557024        -1.074063
 H         2.307208         1.994636        -0.569065
 H        -0.306733         0.419329        -1.098853
 H         0.880894        -0.847658        -1.740737
 H        -0.405105        -1.995046         0.441899
 H        -0.213145         0.986638         1.126060
 H         2.224124        -1.413581         3.677457
 H         1.048644        -2.269503         2.649962
 H         2.349521        -1.957498        -0.490471
