19
Iteration:   464charge 0 multiplicity 1
 C         2.716592         1.145346        -0.006415
 C         1.623265         0.108685         0.003768
 C         0.523215        -0.538038        -0.884936
 C         0.387942        -1.246162         0.520273
 C         0.642637         0.114153         1.129326
 O         1.179671         0.034464         2.526816
 C         1.758420        -1.243023         2.646826
 O         2.617598        -1.560171         1.559232
 C         1.928441        -1.441453         0.346502
 H         3.158217         0.939824         0.939996
 H         3.537158         0.841313        -0.719827
 H         2.505228         2.205440         0.064375
 H        -0.243109         0.190839        -1.266023
 H         0.839591        -1.173244        -1.677156
 H        -0.365285        -2.046834         0.776014
 H        -0.189121         0.874224         1.196716
 H         2.225377        -1.223527         3.611022
 H         0.937818        -1.929630         2.539349
 H         2.310600        -2.037468        -0.417535
