19
Iteration:  3253charge 0 multiplicity 1
 C         2.608459         1.328488        -0.107712
 C         1.692669         0.096250        -0.022339
 C         0.590138        -0.470639        -0.922021
 C         0.360813        -1.162810         0.416886
 C         0.703154         0.132780         1.040893
 O         1.223023        -0.070706         2.521515
 C         1.685012        -1.291027         2.751238
 O         2.582978        -1.817177         1.712927
 C         1.973882        -1.372008         0.427877
 H         3.239940         1.347954         0.840573
 H         3.279419         1.247711        -1.035965
 H         1.955984         2.198197        -0.111344
 H        -0.198890         0.373637        -1.131243
 H         0.939971        -0.865758        -1.865714
 H        -0.497988        -1.794215         0.660628
 H         0.016355         0.977051         1.256950
 H         2.247367        -1.290569         3.704850
 H         0.837067        -2.032173         2.704151
 H         2.358081        -2.079912        -0.299490
