19
Iteration:  3927charge 0 multiplicity 1
 C         2.667417         1.318551        -0.122599
 C         1.703855         0.134722        -0.047122
 C         0.672835        -0.517107        -0.931601
 C         0.435179        -1.225068         0.416155
 C         0.633615         0.135900         1.110343
 O         1.138641        -0.006778         2.483889
 C         1.683385        -1.257409         2.744277
 O         2.530864        -1.846370         1.689959
 C         1.952857        -1.347149         0.456713
 H         3.317058         1.326558         0.783671
 H         3.165456         1.287408        -1.091899
 H         1.983442         2.163493         0.059337
 H        -0.179906         0.146477        -1.306393
 H         1.112829        -0.993209        -1.773542
 H        -0.103774        -2.107870         0.758797
 H        -0.118463         0.973286         1.343188
 H         2.347830        -1.186717         3.630542
 H         0.807458        -1.842435         3.059418
 H         2.403186        -2.014865        -0.270562
