19
Iteration:   200charge 0 multiplicity 1
 C         2.785808         1.055590        -0.088344
 C         1.704589         0.059132         0.163633
 C         0.725096        -0.209960        -0.860866
 C         0.329705        -1.276560         0.269092
 C         0.468411        -0.052184         1.215480
 O         0.864910        -0.209356         2.517246
 C         2.260197        -0.767954         2.500583
 O         2.383790        -1.864195         1.717127
 C         1.827625        -1.447119         0.442332
 H         3.528467         1.195579         0.723528
 H         3.285874         0.967867        -1.009616
 H         2.129071         1.966260        -0.010981
 H         0.059712         0.653151        -0.958750
 H         1.234073        -0.561582        -1.828365
 H        -0.401706        -2.220905         0.269752
 H        -0.412894         0.678287         1.304142
 H         2.918903         0.143250         2.271734
 H         2.550503        -0.875936         3.526587
 H         2.324810        -2.107413        -0.243825
