19
Iteration:  2203
 C         2.746882         1.230715        -0.157173
 C         1.664233         0.131670         0.131300
 C         0.595069        -0.389796        -0.801539
 C         0.395415        -1.349129         0.331216
 C         0.552784         0.028667         1.212997
 O         1.171509         0.033407         2.518164
 C         1.673677        -1.290170         2.672153
 O         2.591422        -1.647894         1.608845
 C         1.982502        -1.403051         0.402965
 H         3.506203         1.165616         0.573434
 H         3.182988         1.072945        -1.092384
 H         2.610443         2.304133        -0.300551
 H        -0.276704         0.176967        -0.814113
 H         0.864125        -0.727992        -1.834151
 H        -0.365634        -2.112562         0.390707
 H        -0.291574         0.702347         1.226109
 H         2.262127        -1.310751         3.562233
 H         0.813592        -2.002638         2.638094
 H         2.597890        -1.925699        -0.388467
