19
Iteration:  1415charge 0 multiplicity 1
 C         2.678430         1.254420        -0.229707
 C         1.656239         0.189063         0.035644
 C         0.559890        -0.394150        -0.892722
 C         0.405269        -1.203362         0.355424
 C         0.610246         0.021246         1.209404
 O         1.097763         0.006803         2.539904
 C         1.799228        -1.262315         2.795547
 O         2.610199        -1.780564         1.692267
 C         1.976109        -1.426648         0.352629
 H         3.554439         1.040659         0.459900
 H         3.129241         1.198434        -1.207662
 H         2.182742         2.194757         0.074482
 H        -0.462855        -0.007852        -1.178775
 H         1.061573        -0.854605        -1.799266
 H        -0.305292        -2.118367         0.481420
 H        -0.263875         0.653693         1.209342
 H         2.518992        -1.091452         3.599198
 H         0.955054        -1.858069         3.047464
 H         2.514097        -1.900382        -0.419945
