19
Iteration:  3397
 C         2.667700         1.243125        -0.178370
 C         1.708904         0.143397         0.097869
 C         0.539404        -0.385271        -0.950017
 C         0.479663        -1.301487         0.385381
 C         0.622671         0.061210         1.158959
 O         1.249525         0.025517         2.537532
 C         1.688282        -1.275566         2.749559
 O         2.474735        -1.804450         1.643972
 C         1.967925        -1.345719         0.449677
 H         3.592851         1.315379         0.516163
 H         3.052141         1.291102        -1.200251
 H         2.186957         2.218759        -0.150478
 H        -0.255498         0.384904        -1.235446
 H         0.974831        -0.866431        -1.850866
 H        -0.254825        -2.076052         0.377672
 H        -0.254093         0.731386         1.291258
 H         2.309728        -1.357459         3.646319
 H         0.852473        -1.977563         2.917868
 H         2.550264        -1.865555        -0.276609
