19
Iteration:   663
 C         2.719294         1.143671        -0.174928
 C         1.660434         0.084221         0.125574
 C         0.501178        -0.365492        -0.903360
 C         0.391321        -1.292522         0.308433
 C         0.655749         0.074386         1.232698
 O         1.032423         0.049961         2.566417
 C         1.881922        -1.150748         2.799508
 O         2.584699        -1.764531         1.566767
 C         1.945844        -1.460895         0.355122
 H         3.411382         1.238536         0.688056
 H         3.285553         0.885571        -1.057609
 H         2.271533         2.125808        -0.302599
 H        -0.327942         0.395819        -0.930151
 H         0.892708        -0.831493        -1.806934
 H        -0.394569        -2.095878         0.174827
 H        -0.116148         0.885151         1.145818
 H         2.730494        -0.644154         3.395140
 H         1.298896        -1.825373         3.457344
 H         2.436051        -2.081327        -0.318631
