19
Iteration:   812charge 0 multiplicity 1
 C         2.689693         1.178629        -0.177688
 C         1.717731         0.045149         0.083740
 C         0.560548        -0.429250        -0.887009
 C         0.213364        -1.174718         0.298950
 C         0.615161         0.100913         1.190448
 O         1.078578        -0.041183         2.548678
 C         1.841442        -1.222937         2.748140
 O         2.733244        -1.675992         1.655072
 C         1.910609        -1.424771         0.451423
 H         3.523204         1.156863         0.488636
 H         3.091419         1.243951        -1.249884
 H         2.165825         2.125370        -0.139996
 H        -0.012370         0.433849        -1.251935
 H         0.875700        -1.012527        -1.714984
 H        -0.554153        -1.915482         0.321196
 H        -0.060559         0.935668         1.246160
 H         2.514817        -1.059600         3.559901
 H         1.090312        -2.051272         2.793403
 H         2.232168        -2.244181        -0.309784
