19
Iteration:  4632charge 0 multiplicity 1
 C         2.656322         1.224789        -0.196675
 C         1.774669         0.037204         0.012164
 C         0.725944        -0.402095        -1.020293
 C         0.428288        -1.284901         0.475795
 C         0.653482         0.123065         1.163570
 O         1.136354         0.055635         2.527090
 C         1.602356        -1.228604         2.703023
 O         2.538796        -1.682201         1.707123
 C         1.938655        -1.490898         0.467200
 H         2.997238         1.458389         0.886732
 H         3.550312         1.187472        -0.879780
 H         1.874027         2.060489        -0.457493
 H        -0.108131         0.255614        -1.303609
 H         1.180962        -0.994540        -1.930646
 H        -0.461857        -1.844791         0.523151
 H        -0.362007         0.553955         1.270659
 H         2.132487        -1.161970         3.632715
 H         0.940155        -2.001965         2.990618
 H         2.538016        -2.212746        -0.243215
