19
Iteration:  2365
 C         2.763845         1.230840        -0.253400
 C         1.675933         0.168010         0.086439
 C         0.614107        -0.262412        -0.977213
 C         0.358649        -1.275765         0.374459
 C         0.560930        -0.043556         1.267804
 O         1.123111        -0.085990         2.525294
 C         1.718411        -1.325650         2.803586
 O         2.623381        -1.636356         1.704619
 C         1.942834        -1.390389         0.383749
 H         3.564320         1.266011         0.483284
 H         2.991216         1.034947        -1.300255
 H         2.166989         2.183740        -0.372796
 H        -0.085404         0.484573        -1.200798
 H         0.952319        -0.819702        -1.913998
 H        -0.302541        -2.097827         0.466651
 H        -0.224601         0.729590         1.130341
 H         2.368111        -1.214222         3.668891
 H         1.068431        -2.169687         3.071596
 H         2.377843        -2.037106        -0.436414
