19
Iteration:   289
 C         2.704988         1.070332        -0.104506
 C         1.665339         0.082911         0.088265
 C         0.622469        -0.348741        -0.919989
 C         0.339449        -1.263437         0.360448
 C         0.558649         0.013215         1.199872
 O         1.066298         0.014274         2.548683
 C         1.930729        -1.109516         2.741321
 O         2.526532        -1.720554         1.594367
 C         1.949923        -1.393853         0.394290
 H         3.298782         1.278364         0.775323
 H         3.377903         0.815320        -0.912260
 H         2.217880         1.974921        -0.493698
 H        -0.055114         0.463627        -1.246423
 H         0.965271        -0.840267        -1.857077
 H        -0.447730        -2.128863         0.255389
 H        -0.251718         0.775285         1.205355
 H         2.857484        -0.768816         3.319406
 H         1.434439        -1.812776         3.395338
 H         2.288043        -2.053675        -0.351148
