19
Iteration:  3041
 C         2.754948         1.193279        -0.245192
 C         1.731021         0.161550         0.009188
 C         0.574344        -0.379733        -0.843323
 C         0.506726        -1.312245         0.368447
 C         0.588337         0.071024         1.265295
 O         1.116380        -0.012907         2.596741
 C         1.641476        -1.347052         2.744604
 O         2.510852        -1.682469         1.667746
 C         1.977330        -1.315172         0.321530
 H         3.386281         1.551558         0.597739
 H         3.468098         0.894518        -0.987451
 H         2.286247         2.209209        -0.513147
 H        -0.264275         0.205920        -1.135917
 H         0.905031        -0.955912        -1.818988
 H        -0.120169        -2.172191         0.392862
 H        -0.095010         0.890865         1.306467
 H         2.257743        -1.376725         3.639470
 H         0.820967        -2.083045         2.839134
 H         2.462842        -1.881303        -0.499411
