19
Iteration:  3979charge 0 multiplicity 1
 C         2.735945         1.069540        -0.124884
 C         1.690614         0.121600         0.005969
 C         0.585841        -0.344552        -0.935099
 C         0.413792        -1.277615         0.303241
 C         0.613709         0.059832         1.150639
 O         1.026353        -0.027278         2.556302
 C         1.725288        -1.313936         2.728717
 O         2.626466        -1.485477         1.709724
 C         1.979091        -1.436983         0.425703
 H         3.461344         0.841672         0.679563
 H         3.213768         0.890296        -1.079523
 H         2.423006         2.170123        -0.075150
 H        -0.227678         0.382939        -1.199024
 H         0.940837        -0.965822        -1.867499
 H        -0.408082        -2.022259         0.555890
 H        -0.240179         0.767073         1.101293
 H         2.360165        -1.247054         3.662819
 H         0.989289        -2.052581         3.110037
 H         2.545445        -2.071418        -0.302494
