19
Iteration:  3939
 C         2.625988         1.259553        -0.099515
 C         1.695506         0.164896         0.078853
 C         0.668650        -0.471845        -0.933164
 C         0.490528        -1.259427         0.458227
 C         0.638541         0.096549         1.133662
 O         1.132914         0.041147         2.413622
 C         1.713986        -1.282894         2.758039
 O         2.475104        -1.767753         1.677518
 C         1.997166        -1.421085         0.432873
 H         3.473529         1.123248         0.623276
 H         3.187808         1.356577        -1.060994
 H         2.241784         2.260574        -0.027581
 H        -0.286331         0.147615        -1.077111
 H         0.936005        -1.023529        -1.739879
 H        -0.365539        -1.892970         0.510514
 H        -0.191071         0.785175         0.780402
 H         2.302987        -1.114150         3.651663
 H         0.980619        -2.070978         2.810268
 H         2.463455        -1.960930        -0.381837
