19
Iteration:  4624charge 0 multiplicity 1
 C         2.633361         1.274910        -0.160120
 C         1.751185         0.097175         0.008318
 C         0.720970        -0.449709        -1.037095
 C         0.400142        -1.258342         0.385526
 C         0.688682         0.106217         1.156616
 O         1.163742         0.054500         2.481056
 C         1.660897        -1.281400         2.792416
 O         2.507762        -1.697763         1.777102
 C         1.912819        -1.517090         0.430557
 H         3.043541         1.595868         0.792047
 H         3.375080         1.201226        -0.952909
 H         1.845509         2.055125        -0.281003
 H        -0.022279         0.357680        -1.371688
 H         1.122825        -1.076424        -1.848225
 H        -0.290785        -2.145449         0.654519
 H        -0.109193         0.914557         0.994007
 H         2.364487        -1.065751         3.679846
 H         0.796610        -1.984066         2.946768
 H         2.352227        -2.206789        -0.163903
