19
Iteration:  3436charge 0 multiplicity 1
 C         2.688584         1.317462        -0.088432
 C         1.742501         0.077868         0.018783
 C         0.576288        -0.390124        -0.908121
 C         0.309502        -1.263148         0.323935
 C         0.629848         0.127184         1.133107
 O         1.223426        -0.030082         2.476647
 C         1.788398        -1.284607         2.743258
 O         2.535616        -1.770179         1.686669
 C         1.924727        -1.415540         0.470272
 H         3.335027         1.611808         0.722205
 H         3.394404         1.258720        -1.002539
 H         1.855696         2.029880        -0.132325
 H        -0.116557         0.328994        -1.323747
 H         0.824066        -0.996947        -1.798343
 H        -0.287674        -2.043001         0.853902
 H        -0.266036         0.784971         1.179663
 H         2.382203        -1.184663         3.654779
 H         0.909296        -1.914875         2.745140
 H         2.347454        -2.088290        -0.333046
