19
Iteration:  4199charge 0 multiplicity 1
 C         2.868063         1.155111        -0.208086
 C         1.695498         0.097289         0.093027
 C         0.642058        -0.365080        -0.921310
 C         0.365781        -1.319032         0.340323
 C         0.572860         0.068033         1.219254
 O         1.002997        -0.024378         2.534620
 C         1.718952        -1.268992         2.700825
 O         2.605334        -1.492713         1.721042
 C         1.945755        -1.478371         0.446099
 H         3.530942         1.172705         0.706161
 H         3.457417         0.604313        -0.962747
 H         2.589556         2.097174        -0.696574
 H        -0.148848         0.323549        -1.315469
 H         1.014011        -0.796142        -1.815225
 H        -0.495722        -1.942194         0.377681
 H        -0.335944         0.593327         1.206266
 H         2.176416        -1.290745         3.621341
 H         0.865501        -1.922760         2.485691
 H         2.339951        -2.209344        -0.237135
