19
Iteration:  2180
 C         2.773213         1.098747        -0.198414
 C         1.638888         0.168604        -0.028995
 C         0.486145        -0.346094        -0.948966
 C         0.424666        -1.217915         0.435190
 C         0.647164         0.055996         1.212454
 O         1.063022        -0.109285         2.575023
 C         1.698452        -1.430935         2.748545
 O         2.642237        -1.576842         1.683092
 C         1.981334        -1.242398         0.382754
 H         3.443976         1.171777         0.639101
 H         3.252898         1.000012        -1.132737
 H         2.564110         2.173904        -0.486115
 H        -0.335256         0.186569        -1.246217
 H         0.885663        -0.976055        -1.792893
 H        -0.180088        -2.002527         0.815003
 H        -0.185783         0.764958         1.291906
 H         2.299458        -1.326319         3.672884
 H         0.902156        -2.218838         2.670174
 H         2.703468        -1.808445        -0.294934
