19
Iteration:    81charge 0 multiplicity 1
 C         2.702803         1.218567        -0.306322
 C         1.735147         0.042830         0.053331
 C         0.527763        -0.515317        -0.836390
 C         0.327475        -1.171504         0.468130
 C         0.628385         0.161453         1.276128
 O         1.141009        -0.005795         2.530142
 C         1.636483        -1.366615         2.580343
 O         2.654085        -1.660646         1.710135
 C         2.085748        -1.315957         0.411339
 H         3.366926         1.539626         0.553619
 H         3.334117         0.997039        -1.183104
 H         2.011029         2.102378        -0.536980
 H        -0.097119         0.323915        -1.142686
 H         0.698144        -1.284117        -1.644033
 H        -0.421206        -2.115208         0.689697
 H        -0.072884         1.036769         1.243462
 H         1.918892        -1.550750         3.701591
 H         0.706292        -2.064621         2.524600
 H         2.552626        -1.944653        -0.311066
