19
Iteration:  3538charge 0 multiplicity 1
 C         2.702427         1.207697        -0.263371
 C         1.788728         0.070887         0.090995
 C         0.654602        -0.368154        -0.897744
 C         0.358766        -1.196723         0.412336
 C         0.637285         0.011639         1.229486
 O         1.071989        -0.082984         2.597093
 C         1.719807        -1.285741         2.650382
 O         2.566202        -1.569307         1.647744
 C         1.929323        -1.470012         0.422969
 H         3.435098         1.313893         0.616141
 H         3.281530         1.198433        -1.227955
 H         2.245576         2.202964        -0.318109
 H        -0.106569         0.412262        -1.144658
 H         0.971314        -0.817049        -1.790271
 H        -0.467852        -1.857167         0.600982
 H        -0.059471         0.766312         1.091279
 H         2.286933        -1.236909         3.573733
 H         1.011569        -2.036361         2.842188
 H         2.136017        -2.131260        -0.402660
