19
Iteration:  4266
 C         2.561253         1.328545        -0.131248
 C         1.754415         0.050731         0.097557
 C         0.795851        -0.500785        -1.007747
 C         0.337239        -1.291659         0.215253
 C         0.664370         0.119269         1.179126
 O         1.252227         0.135342         2.546850
 C         1.714824        -1.260132         2.773821
 O         2.459243        -1.793302         1.757850
 C         1.890313        -1.479207         0.453093
 H         3.186290         1.618514         0.736086
 H         3.262942         1.353462        -1.040503
 H         1.896053         2.095954        -0.541236
 H         0.149072         0.305188        -1.566278
 H         1.209543        -1.113053        -1.788113
 H        -0.598316        -1.866834         0.296785
 H        -0.052685         0.906032         1.162715
 H         2.227873        -1.280073         3.762631
 H         0.743145        -1.849898         2.745658
 H         2.413010        -2.230468        -0.100386
