19
Iteration:  1995charge 0 multiplicity 1
 C         2.816966         1.113169        -0.310666
 C         1.704276         0.171445         0.118565
 C         0.536378        -0.213545        -0.926521
 C         0.384692        -1.275839         0.393908
 C         0.550032         0.010640         1.244359
 O         1.073931        -0.143836         2.597723
 C         1.775249        -1.396305         2.783789
 O         2.620344        -1.517317         1.640919
 C         1.908295        -1.340898         0.421765
 H         3.527683         1.195101         0.500420
 H         3.278522         0.631458        -1.184494
 H         2.336766         2.080926        -0.687483
 H        -0.282904         0.461111        -1.302961
 H         0.989733        -0.808055        -1.851916
 H        -0.079575        -2.283999         0.426405
 H        -0.314554         0.668771         1.053841
 H         2.440788        -1.198632         3.729507
 H         1.014440        -2.162515         2.796415
 H         2.303944        -1.808976        -0.495770
