19
Iteration:   682
 C         2.830189         1.213888        -0.207868
 C         1.690051         0.152428         0.035838
 C         0.482380        -0.382002        -0.833346
 C         0.388115        -1.286214         0.414769
 C         0.570864         0.004558         1.156220
 O         1.069712        -0.080255         2.488055
 C         1.938470        -1.152723         2.742178
 O         2.486446        -1.759805         1.646606
 C         1.927697        -1.347545         0.409238
 H         3.393097         1.452910         0.686755
 H         3.594253         0.814641        -0.981583
 H         2.398629         2.162603        -0.538713
 H        -0.290436         0.418879        -0.930268
 H         0.772094        -0.836485        -1.744836
 H        -0.191483        -2.009381         0.798900
 H        -0.351647         0.607539         1.148421
 H         2.586664        -0.812379         3.515655
 H         1.288589        -1.858240         3.233451
 H         2.397660        -1.918498        -0.455937
