19
Iteration:  2581charge 0 multiplicity 1
 C         2.691816         1.323928        -0.080969
 C         1.629282         0.120791         0.057907
 C         0.598333        -0.378239        -0.910387
 C         0.349335        -1.345418         0.251479
 C         0.613292        -0.077854         1.196737
 O         1.299046         0.040685         2.423984
 C         1.725519        -1.224380         2.843373
 O         2.495022        -1.721929         1.674864
 C         1.935292        -1.377763         0.388533
 H         3.420055         0.735275         0.606594
 H         3.106912         1.191587        -1.039541
 H         2.290414         2.299755         0.253473
 H        -0.179428         0.281911        -1.191854
 H         1.169267        -0.647393        -1.842499
 H        -0.411354        -2.111902         0.324507
 H        -0.110301         0.734271         1.369570
 H         2.426410        -1.185290         3.721492
 H         0.856216        -1.950506         2.923656
 H         2.647652        -1.924681        -0.178307
