19
Iteration:  4051charge 0 multiplicity 1
 C         2.741419         1.206425        -0.198204
 C         1.784967         0.091655         0.088328
 C         0.591114        -0.363113        -0.905106
 C         0.423662        -1.313298         0.328862
 C         0.564939         0.069519         1.168949
 O         1.100499         0.026135         2.469938
 C         1.733798        -1.333276         2.741344
 O         2.539006        -1.619625         1.733001
 C         1.972528        -1.411179         0.468318
 H         3.164247         1.618474         0.709123
 H         3.564526         0.848432        -0.889143
 H         2.202326         1.957603        -0.787983
 H        -0.171127         0.416680        -0.958326
 H         0.911501        -0.764897        -1.886517
 H        -0.372595        -2.152121         0.259410
 H        -0.299351         0.813625         1.124864
 H         2.091124        -1.391657         3.815868
 H         0.900018        -2.052458         2.821756
 H         2.466564        -2.139541        -0.268613
