19
Iteration:  3297charge 0 multiplicity 1
 C         2.699452         1.101719        -0.145038
 C         1.634244         0.100068         0.118939
 C         0.595851        -0.298568        -0.882960
 C         0.358538        -1.292526         0.315290
 C         0.632807         0.005699         1.218720
 O         1.100902         0.016944         2.531684
 C         1.751921        -1.259277         2.717023
 O         2.609894        -1.672174         1.600976
 C         1.965617        -1.360876         0.409221
 H         3.328156         1.406718         0.765418
 H         3.545477         0.753393        -0.797986
 H         2.381838         2.082188        -0.463897
 H        -0.322280         0.333248        -1.185244
 H         0.967872        -0.885880        -1.706095
 H        -0.412727        -2.049648         0.468198
 H        -0.085272         0.813042         1.299316
 H         2.415304        -1.102645         3.552278
 H         1.006338        -2.011205         2.803893
 H         2.574250        -1.794981        -0.379383
