19
Iteration:  2207charge 0 multiplicity 1
 C         2.731061         1.244838        -0.116777
 C         1.673949         0.100750         0.139301
 C         0.606443        -0.350974        -0.824094
 C         0.383634        -1.367687         0.351616
 C         0.576886         0.003653         1.190094
 O         1.157968         0.080309         2.515033
 C         1.694716        -1.290444         2.642133
 O         2.598828        -1.678855         1.591373
 C         1.976134        -1.416476         0.391473
 H         3.626927         1.178075         0.561745
 H         3.140166         0.967719        -1.177528
 H         2.299654         2.285719        -0.238131
 H        -0.357271         0.349599        -0.859244
 H         0.978843        -0.782507        -1.770996
 H        -0.482884        -2.122487         0.493256
 H        -0.264244         0.710543         1.254574
 H         2.145634        -1.295349         3.659480
 H         0.841011        -1.916504         2.848655
 H         2.688569        -1.865457        -0.267302
