19
Iteration:  3708
 C         2.779189         1.234774        -0.239189
 C         1.742193         0.142813        -0.044230
 C         0.569063        -0.423823        -0.901905
 C         0.434107        -1.248834         0.473204
 C         0.657714         0.057602         1.199083
 O         1.059244        -0.076016         2.595201
 C         1.639591        -1.308608         2.747843
 O         2.585422        -1.620425         1.644948
 C         2.002327        -1.386126         0.388873
 H         3.217794         1.325008         0.751175
 H         3.505566         0.941933        -0.994499
 H         2.200788         2.136691        -0.583592
 H        -0.260980         0.272290        -0.989777
 H         0.750733        -1.006473        -1.800176
 H        -0.370779        -1.991458         0.553416
 H        -0.159829         0.859128         1.120827
 H         2.225941        -1.199506         3.647138
 H         0.794701        -1.997480         2.865706
 H         2.331250        -1.994434        -0.400437
