19
Iteration:  3530
 C         2.752346         1.163405        -0.271080
 C         1.740190         0.065435         0.046962
 C         0.665734        -0.352399        -0.800060
 C         0.358973        -1.224951         0.328910
 C         0.613640         0.070308         1.205687
 O         1.054140        -0.063550         2.632391
 C         1.717111        -1.329295         2.706847
 O         2.613861        -1.529233         1.620885
 C         1.890142        -1.425916         0.407676
 H         3.393160         1.254944         0.605788
 H         3.286258         0.824511        -1.113762
 H         2.027474         2.032090        -0.298211
 H        -0.002898         0.463095        -1.066795
 H         0.888863        -0.952556        -1.752265
 H        -0.387875        -2.067913         0.319778
 H        -0.113851         0.929927         1.290168
 H         2.428303        -1.250381         3.562328
 H         0.994105        -2.218519         2.722748
 H         2.376578        -2.108868        -0.323420
