19
Iteration:   190
 C         2.742579         1.038624         0.029186
 C         1.716144         0.036708         0.150191
 C         0.639762        -0.239805        -0.927081
 C         0.320407        -1.260124         0.200518
 C         0.561913         0.006987         1.231957
 O         0.883124        -0.256428         2.581414
 C         2.258306        -0.689014         2.526403
 O         2.392452        -1.834368         1.733625
 C         1.848014        -1.485692         0.403206
 H         3.501331         1.044783         0.827314
 H         3.235782         0.911049        -0.931559
 H         2.330730         2.060947        -0.167733
 H        -0.177974         0.429147        -1.233413
 H         1.125948        -0.567365        -1.898066
 H        -0.509648        -2.156050         0.267638
 H        -0.147305         0.859507         1.028372
 H         2.826219         0.187988         2.017322
 H         2.480586        -1.072640         3.488697
 H         2.295001        -2.142026        -0.306744
