19
Iteration:  3061
 C         2.681380         1.342901        -0.216724
 C         1.719876         0.181716         0.054779
 C         0.583980        -0.412822        -0.901596
 C         0.385040        -1.216680         0.385934
 C         0.679320         0.086014         1.166587
 O         1.134459        -0.027846         2.485114
 C         1.670612        -1.318824         2.702858
 O         2.570946        -1.833058         1.691832
 C         2.002986        -1.408582         0.502795
 H         3.310905         1.551253         0.713050
 H         3.323236         1.012411        -0.984776
 H         2.121750         2.294175        -0.417831
 H        -0.180839         0.298773        -1.103526
 H         0.911481        -0.909812        -1.859592
 H        -0.462527        -1.767579         0.775432
 H        -0.114420         0.737437         1.116989
 H         2.325447        -1.294112         3.589233
 H         0.874467        -2.162475         2.825836
 H         2.364971        -2.019283        -0.327284
