19
Iteration:  3477charge 0 multiplicity 1
 C         2.896456         1.142709        -0.171814
 C         1.687356         0.120258         0.104066
 C         0.499660        -0.411611        -0.906617
 C         0.381450        -1.290879         0.416960
 C         0.588956         0.030247         1.251701
 O         1.025744        -0.000702         2.586379
 C         1.759529        -1.314759         2.641911
 O         2.615944        -1.581321         1.620155
 C         1.907185        -1.333036         0.326192
 H         3.297803         1.362428         0.800888
 H         3.666735         0.681488        -0.801645
 H         2.418149         2.084926        -0.615977
 H        -0.274821         0.332914        -0.983991
 H         0.955569        -0.864044        -1.872080
 H        -0.264629        -2.205726         0.628848
 H        -0.154640         0.931508         1.230779
 H         2.442767        -1.220134         3.520087
 H         0.976133        -2.134443         2.771240
 H         2.453808        -1.951454        -0.436190
