19
Iteration:  3641charge 0 multiplicity 1
 C         2.828481         1.178743        -0.146519
 C         1.709864         0.140821        -0.029979
 C         0.536009        -0.464043        -0.851967
 C         0.367706        -1.230752         0.360773
 C         0.646858         0.098290         1.200646
 O         0.995613        -0.122523         2.515829
 C         1.769007        -1.270652         2.771746
 O         2.590831        -1.556759         1.603180
 C         1.926260        -1.424640         0.445943
 H         3.377005         1.370784         0.768153
 H         3.666308         0.906541        -0.757780
 H         2.543745         2.217596        -0.593179
 H        -0.272872         0.197382        -0.888450
 H         0.915652        -0.936925        -1.811968
 H        -0.400123        -2.036064         0.582152
 H        -0.009888         1.038320         1.222773
 H         2.405418        -1.012072         3.624816
 H         1.164503        -2.154835         2.816897
 H         2.246244        -2.040389        -0.383668
