19
Iteration:   344
 C         2.692955         1.121893        -0.135281
 C         1.714781         0.048962         0.074240
 C         0.554149        -0.476508        -0.810345
 C         0.260741        -1.225779         0.469854
 C         0.731783         0.070216         1.151250
 O         1.164188        -0.005775         2.512379
 C         1.687806        -1.242538         2.652682
 O         2.620607        -1.574232         1.618421
 C         2.012617        -1.384487         0.335597
 H         3.149226         1.472627         0.776399
 H         3.472105         0.897095        -0.891873
 H         2.041812         1.919126        -0.507845
 H        -0.073517         0.409123        -1.109782
 H         0.993558        -0.978697        -1.647939
 H        -0.705514        -1.884500         0.727743
 H        -0.106595         0.780464         1.254000
 H         2.131009        -1.481945         3.677800
 H         0.701220        -1.771118         2.638096
 H         2.425588        -2.005291        -0.373313
