19
Iteration:   171
 C         2.889428         1.139904         0.036765
 C         1.733791         0.100543         0.047861
 C         0.557551        -0.432746        -0.950207
 C         0.251858        -1.208999         0.290863
 C         0.544348        -0.022120         1.142493
 O         0.915922        -0.259368         2.562092
 C         2.227092        -0.748992         2.684609
 O         2.379428        -1.802086         1.621496
 C         1.865397        -1.449603         0.391547
 H         3.401333         1.101993         0.985206
 H         3.587874         1.095963        -0.890112
 H         2.381194         2.104661        -0.037225
 H        -0.073112         0.468378        -1.188230
 H         0.750689        -0.982664        -1.837720
 H        -0.578439        -1.927259         0.498238
 H        -0.241748         0.677342         1.314581
 H         2.888483         0.163233         2.604580
 H         2.330382        -1.163326         3.700111
 H         2.410572        -2.094870        -0.323192
