19
Iteration:  1700charge 0 multiplicity 1
 C         2.676014         1.201085        -0.080077
 C         1.675266         0.107229         0.002845
 C         0.490217        -0.358993        -0.875508
 C         0.388977        -1.319527         0.388230
 C         0.610832         0.103743         1.179535
 O         1.225458         0.017792         2.478899
 C         1.728598        -1.313888         2.726814
 O         2.595107        -1.701765         1.649698
 C         1.987021        -1.359463         0.399209
 H         3.166887         1.445203         0.884468
 H         3.525859         0.951700        -0.702378
 H         2.205742         2.187778        -0.514664
 H        -0.289532         0.313548        -1.145691
 H         0.803009        -0.883367        -1.777246
 H        -0.334971        -2.241138         0.681790
 H        -0.224560         0.791929         1.088454
 H         2.317095        -1.316834         3.640916
 H         0.987509        -2.051334         2.754741
 H         2.470748        -1.958985        -0.368491
