19
Iteration:  4623
 C         2.629662         1.278237        -0.154476
 C         1.747635         0.097321         0.007711
 C         0.718171        -0.452292        -1.028736
 C         0.396644        -1.257523         0.373697
 C         0.689026         0.101764         1.151739
 O         1.164807         0.053960         2.476177
 C         1.668163        -1.285147         2.804382
 O         2.504302        -1.700228         1.781783
 C         1.911416        -1.512778         0.432398
 H         3.083623         1.606124         0.807378
 H         3.365297         1.211319        -0.974010
 H         1.840484         2.093732        -0.303481
 H        -0.011579         0.349407        -1.376334
 H         1.125114        -1.104396        -1.866222
 H        -0.254567        -2.130217         0.651924
 H        -0.063486         0.947437         0.977623
 H         2.361134        -1.081300         3.673013
 H         0.812139        -1.944911         2.929094
 H         2.345324        -2.227540        -0.191474
