19
Iteration:  3118
 C         2.764065         1.184753        -0.115754
 C         1.706394         0.159591         0.088874
 C         0.507148        -0.409497        -0.835713
 C         0.422619        -1.305079         0.334614
 C         0.603543         0.105903         1.189953
 O         1.155960         0.012432         2.435684
 C         1.709103        -1.299062         2.711617
 O         2.541696        -1.738449         1.625614
 C         1.959077        -1.340756         0.425724
 H         3.315300         1.207326         0.830664
 H         3.535717         1.187459        -0.880701
 H         2.411169         2.278475        -0.161936
 H        -0.210306         0.353570        -1.103095
 H         0.918494        -0.939609        -1.778190
 H        -0.104688        -2.199650         0.635307
 H        -0.263078         0.657623         1.267518
 H         2.368734        -1.089939         3.554711
 H         0.839012        -2.064460         2.972119
 H         2.397752        -1.909940        -0.420534
