19
Iteration:  1018charge 0 multiplicity 1
 C         2.743973         1.246432        -0.171936
 C         1.635934         0.155489         0.010129
 C         0.645192        -0.389582        -0.937953
 C         0.282545        -1.269279         0.389140
 C         0.594733         0.061862         1.183786
 O         1.069881        -0.065637         2.606859
 C         1.911323        -1.279478         2.740393
 O         2.674660        -1.555118         1.647571
 C         1.820000        -1.556188         0.421061
 H         3.495898         1.129823         0.550365
 H         3.279113         0.929015        -1.140860
 H         2.259476         2.252821        -0.197929
 H        -0.244071         0.306940        -1.133530
 H         0.812072        -0.900068        -1.936600
 H        -0.605388        -2.075246         0.325466
 H         0.114421         1.027197         1.144554
 H         2.468753        -1.060805         3.618400
 H         1.187473        -2.040645         2.844244
 H         2.151902        -2.250487        -0.261397
