19
Iteration:   364
 C         2.656808         1.227765        -0.318743
 C         1.744437         0.084366         0.031003
 C         0.616542        -0.371925        -0.926779
 C         0.365638        -1.167836         0.363019
 C         0.586852         0.119174         1.236900
 O         1.128993        -0.034754         2.552972
 C         1.782855        -1.351160         2.750591
 O         2.617434        -1.665256         1.700420
 C         1.907053        -1.467420         0.474170
 H         3.354468         1.399844         0.539338
 H         3.351657         0.955053        -1.120436
 H         2.148943         2.183013        -0.655551
 H        -0.213471         0.300669        -1.157266
 H         0.794423        -1.087061        -1.774202
 H        -0.401074        -1.972190         0.534648
 H        -0.070094         1.061457         1.322636
 H         2.320274        -1.327391         3.716304
 H         0.953112        -2.072562         3.007331
 H         2.335869        -2.100064        -0.292160
