19
Iteration:  1535charge 0 multiplicity 1
 C         2.584228         1.156194        -0.141556
 C         1.618371         0.073020         0.134049
 C         0.554541        -0.333579        -0.902116
 C         0.409411        -1.293484         0.248144
 C         0.595699         0.025500         1.223682
 O         1.281582         0.011208         2.497260
 C         1.772191        -1.211934         2.753737
 O         2.506075        -1.692605         1.649205
 C         2.040344        -1.371415         0.398525
 H         3.240790         1.325033         0.733610
 H         3.321805         0.852608        -0.832303
 H         2.124452         2.092512        -0.445530
 H        -0.278588         0.343966        -0.986105
 H         0.845570        -0.828988        -1.800777
 H        -0.256665        -2.239585         0.114535
 H        -0.258127         0.666566         1.350996
 H         2.421469        -1.073158         3.616900
 H         0.973673        -2.014990         3.092734
 H         2.802919        -1.737077        -0.269031
