19
Iteration:  2134charge 0 multiplicity 1
 C         2.719769         1.167503        -0.267592
 C         1.703664         0.108005         0.118624
 C         0.649910        -0.266564        -0.905875
 C         0.346775        -1.255762         0.403860
 C         0.569164         0.023360         1.163501
 O         1.031451        -0.106308         2.621973
 C         1.818889        -1.370372         2.767030
 O         2.613158        -1.563139         1.620643
 C         1.943747        -1.405753         0.356317
 H         3.282806         1.407532         0.677066
 H         3.341545         0.742853        -1.077255
 H         2.301971         2.078179        -0.800847
 H        -0.054457         0.536799        -0.947027
 H         0.920265        -0.612360        -1.896431
 H        -0.508566        -1.884561         0.582336
 H        -0.215348         0.789629         1.289865
 H         2.478201        -1.087057         3.629679
 H         1.032886        -2.160276         2.881578
 H         2.517914        -2.090626        -0.353546
