19
Iteration:  3508
 C         2.862179         1.056456        -0.264939
 C         1.603900         0.187263         0.111079
 C         0.468832        -0.340892        -0.940495
 C         0.401451        -1.230635         0.340317
 C         0.619868         0.029672         1.233086
 O         1.034216        -0.112441         2.584215
 C         1.743081        -1.318760         2.677778
 O         2.661836        -1.558492         1.715577
 C         1.980256        -1.316742         0.399947
 H         3.381151         1.161286         0.708628
 H         3.461991         0.394173        -0.836667
 H         2.531978         2.074079        -0.646274
 H        -0.402469         0.303402        -1.118395
 H         0.868237        -0.611333        -1.973450
 H        -0.323100        -2.017470         0.686849
 H        -0.177081         0.837799         1.269906
 H         2.357363        -1.144976         3.607989
 H         0.982323        -2.191842         2.753371
 H         2.462415        -1.847194        -0.431661
