19
Iteration:  3511
 C         2.832520         1.051272        -0.248270
 C         1.620297         0.160408         0.121030
 C         0.478146        -0.330012        -0.954962
 C         0.382794        -1.253811         0.337576
 C         0.641275         0.059219         1.255012
 O         1.024242        -0.101579         2.582759
 C         1.763313        -1.334611         2.701480
 O         2.661626        -1.549864         1.703811
 C         1.984462        -1.320547         0.397291
 H         3.413847         1.231474         0.639130
 H         3.478290         0.459029        -0.964566
 H         2.541826         2.063656        -0.665992
 H        -0.385179         0.293671        -1.183111
 H         0.875847        -0.607792        -2.016107
 H        -0.377844        -2.056175         0.611146
 H        -0.188406         0.898917         1.209596
 H         2.287752        -1.222449         3.685377
 H         0.956058        -2.165823         2.775317
 H         2.425312        -1.835535        -0.484834
