19
Iteration:  3502
 C         2.881634         1.064137        -0.246146
 C         1.626815         0.242701         0.042225
 C         0.467673        -0.347936        -0.870710
 C         0.435994        -1.209306         0.366592
 C         0.544652         0.001680         1.194579
 O         1.052154        -0.128511         2.564248
 C         1.704690        -1.295294         2.691959
 O         2.659222        -1.572864         1.679906
 C         1.962152        -1.303408         0.403969
 H         3.324102         1.119192         0.743788
 H         3.544558         0.333267        -0.823873
 H         2.682898         2.035611        -0.694112
 H        -0.388329         0.336545        -0.900252
 H         0.865497        -0.831003        -1.784723
 H        -0.250234        -1.999105         0.682676
 H        -0.303573         0.710701         1.357731
 H         2.390528        -1.170403         3.514678
 H         1.099235        -2.186900         2.758837
 H         2.601660        -1.934086        -0.257461
