19
Iteration:  1110
 C         2.590430         1.192061        -0.191727
 C         1.642363         0.078624         0.062815
 C         0.573148        -0.402500        -0.932435
 C         0.350253        -1.170185         0.433667
 C         0.690629         0.143547         1.197657
 O         1.154878        -0.026189         2.570897
 C         1.742080        -1.297602         2.657023
 O         2.719101        -1.690964         1.686449
 C         1.924747        -1.439100         0.387100
 H         3.088082         1.661738         0.732886
 H         3.463987         1.115597        -0.813814
 H         1.906073         1.919119        -0.593173
 H        -0.350750         0.014339        -1.396369
 H         1.041962        -1.070981        -1.636440
 H        -0.496832        -1.763047         0.599387
 H        -0.005740         0.967433         1.259734
 H         2.253088        -1.393642         3.659478
 H         0.974674        -1.993648         2.491573
 H         2.421042        -2.223895        -0.292315
