19
Iteration:  1033
 C         2.717359         1.180672        -0.205437
 C         1.680915         0.132632         0.106400
 C         0.550395        -0.351940        -0.902921
 C         0.371884        -1.254092         0.346876
 C         0.615710         0.012064         1.204367
 O         1.122922        -0.081733         2.497670
 C         1.825761        -1.222567         2.819557
 O         2.569839        -1.619179         1.615608
 C         1.880093        -1.420335         0.398189
 H         3.485150         1.371740         0.604275
 H         3.289118         0.878258        -1.102282
 H         2.362134         2.161679        -0.443366
 H        -0.258988         0.335173        -1.234365
 H         1.053928        -0.827586        -1.712914
 H        -0.365919        -1.939737         0.625509
 H        -0.318414         0.556866         1.321923
 H         2.677013        -1.019632         3.538850
 H         1.293659        -2.082752         3.221217
 H         2.423606        -2.120256        -0.343382
