19
Iteration:  4361charge 0 multiplicity 1
 C         2.923940         1.033070        -0.214787
 C         1.726089         0.146334         0.040960
 C         0.643500        -0.454110        -0.942226
 C         0.285984        -1.169321         0.302292
 C         0.574681         0.010941         1.131522
 O         0.880173        -0.123702         2.585340
 C         1.673242        -1.225926         2.762206
 O         2.751182        -1.468186         1.753180
 C         1.902322        -1.352766         0.430184
 H         3.625562         1.108015         0.626626
 H         3.458445         0.711090        -1.069339
 H         2.553757         2.041608        -0.469871
 H        -0.063920         0.280157        -1.292294
 H         0.947411        -1.113228        -1.770236
 H        -0.452645        -1.919446         0.575680
 H        -0.150136         0.846567         1.227890
 H         2.267915        -1.030129         3.625377
 H         1.052281        -2.129002         2.804336
 H         2.332999        -2.161307        -0.297064
