19
Iteration:  4337charge 0 multiplicity 1
 C         2.824253         0.946179        -0.186460
 C         1.699764         0.098913         0.060143
 C         0.688591        -0.386769        -0.914023
 C         0.411731        -1.261005         0.396368
 C         0.611793         0.055666         1.141094
 O         0.945397        -0.037632         2.524733
 C         1.705672        -1.299822         2.680569
 O         2.564609        -1.422586         1.720596
 C         1.922637        -1.317223         0.455554
 H         3.450824         0.879994         0.692322
 H         3.410228         0.678456        -1.000859
 H         2.549412         1.959211        -0.418850
 H        -0.009765         0.311670        -1.157707
 H         1.036891        -0.934456        -1.838756
 H        -0.161693        -2.161003         0.492771
 H        -0.241226         0.802524         1.101182
 H         2.351849        -1.256127         3.543980
 H         0.916937        -2.089368         2.782170
 H         2.589552        -1.832000        -0.222700
