19
Iteration:  3130
 C         2.841241         1.161047        -0.052687
 C         1.650914         0.176862         0.073208
 C         0.491615        -0.369625        -0.934734
 C         0.446058        -1.247018         0.449061
 C         0.550091         0.029883         1.149045
 O         1.132277        -0.065241         2.435350
 C         1.751990        -1.278281         2.674444
 O         2.586886        -1.685347         1.685999
 C         1.958945        -1.304786         0.403288
 H         3.559517         1.170378         0.742706
 H         3.213310         0.610281        -0.960509
 H         2.332683         2.137022        -0.343482
 H        -0.446669         0.261835        -0.924533
 H         0.758327        -0.831586        -1.956384
 H        -0.404188        -1.910691         0.586783
 H        -0.181057         0.789573         1.089616
 H         2.319357        -1.212343         3.615016
 H         0.908228        -2.115162         2.862218
 H         2.581935        -1.889087        -0.299664
