19
Iteration:  3985charge 0 multiplicity 1
 C         2.793723         1.087238        -0.111589
 C         1.664581         0.146670         0.022170
 C         0.557383        -0.414096        -0.897488
 C         0.366099        -1.212040         0.347655
 C         0.630207         0.049356         1.159265
 O         0.991576        -0.107201         2.525017
 C         1.735039        -1.249046         2.726265
 O         2.606238        -1.485601         1.689369
 C         2.014621        -1.437598         0.429428
 H         3.568116         0.947007         0.636134
 H         3.304323         0.875150        -1.100762
 H         2.568843         2.117465        -0.235839
 H        -0.149288         0.324340        -1.220990
 H         1.023306        -0.856933        -1.741028
 H        -0.280067        -2.024323         0.630629
 H        -0.219006         0.724334         0.954713
 H         2.424816        -1.156315         3.555972
 H         0.970087        -2.074800         2.854955
 H         2.512884        -2.015736        -0.375043
