19
Iteration:  3136charge 0 multiplicity 1
 C         2.817745         1.119669        -0.083750
 C         1.630522         0.185989         0.055288
 C         0.530007        -0.343425        -0.931558
 C         0.361257        -1.241927         0.423249
 C         0.559167         0.032424         1.155582
 O         1.111296        -0.075664         2.487240
 C         1.740336        -1.280228         2.730578
 O         2.626716        -1.640125         1.667812
 C         2.009936        -1.351062         0.394696
 H         3.568136         1.183654         0.760556
 H         3.292923         0.618105        -0.906693
 H         2.589081         2.150948        -0.327752
 H        -0.403866         0.178491        -1.019941
 H         0.629128        -0.763642        -1.902733
 H        -0.436709        -1.997896         0.527161
 H        -0.241147         0.856016         1.038704
 H         2.307028        -1.271365         3.667631
 H         1.041723        -2.053070         2.677656
 H         2.495055        -1.887626        -0.428807
