19
Iteration:   688charge 0 multiplicity 1
 C         2.823971         1.193420        -0.245715
 C         1.641311         0.154771         0.025952
 C         0.483164        -0.383202        -0.859903
 C         0.402203        -1.246510         0.432419
 C         0.603706         0.005366         1.180974
 O         1.067120        -0.069725         2.476353
 C         1.920497        -1.212389         2.751615
 O         2.489759        -1.737310         1.616126
 C         1.945968        -1.337126         0.448435
 H         3.196959         1.371619         0.799583
 H         3.613930         0.914864        -0.895185
 H         2.432910         2.187102        -0.568285
 H        -0.177953         0.464445        -0.957692
 H         0.910948        -0.885048        -1.802135
 H        -0.430262        -2.055322         0.799673
 H        -0.359819         0.538921         1.217938
 H         2.696697        -0.778037         3.477994
 H         1.254928        -1.943164         3.358042
 H         2.530403        -1.983617        -0.228086
