19
Iteration:  1651charge 0 multiplicity 1
 C         2.803278         1.171315        -0.318312
 C         1.683245         0.169685        -0.003515
 C         0.551952        -0.397673        -0.916060
 C         0.351108        -1.167050         0.408820
 C         0.625681         0.049225         1.235565
 O         0.971691        -0.191431         2.594014
 C         1.850913        -1.316266         2.789647
 O         2.614343        -1.582665         1.648294
 C         1.913460        -1.332039         0.425452
 H         3.371868         1.242175         0.640481
 H         3.664441         0.910926        -1.014042
 H         2.512148         2.150710        -0.575050
 H        -0.382192         0.298104        -0.902762
 H         0.767565        -0.761303        -1.948272
 H        -0.318821        -1.929914         0.528786
 H        -0.221610         0.785063         1.177220
 H         2.575422        -1.159744         3.627681
 H         1.339982        -2.301608         3.016833
 H         2.387913        -1.959683        -0.390586
