19
Iteration:   727
 C         2.693014         1.181928        -0.221171
 C         1.745494         0.072864         0.092215
 C         0.607120        -0.393765        -0.886821
 C         0.280558        -1.270953         0.444888
 C         0.594203         0.054298         1.266862
 O         1.188053         0.025292         2.515818
 C         1.731173        -1.341484         2.649420
 O         2.641859        -1.555538         1.606919
 C         1.914905        -1.464502         0.448703
 H         3.162510         1.603093         0.695462
 H         3.563592         0.859113        -0.886089
 H         2.137567         2.046475        -0.588125
 H        -0.198778         0.376757        -1.136677
 H         0.893545        -1.014167        -1.713179
 H        -0.579305        -1.864541         0.479856
 H        -0.146391         0.893080         1.211595
 H         2.345214        -1.310802         3.607140
 H         0.913116        -2.085291         2.786345
 H         2.274612        -2.062401        -0.453523
