19
Iteration:  2396
 C         2.654910         1.275986        -0.073138
 C         1.719750         0.182737         0.062396
 C         0.526550        -0.419206        -0.890334
 C         0.439488        -1.392143         0.374095
 C         0.660152         0.059338         1.206408
 O         1.159661         0.095191         2.480329
 C         1.732500        -1.262197         2.720727
 O         2.474588        -1.848407         1.650244
 C         2.032294        -1.365827         0.342521
 H         3.563633         1.258538         0.586561
 H         3.190595         1.380892        -0.964872
 H         2.207474         2.239926         0.045445
 H        -0.285793         0.336961        -1.002033
 H         0.729957        -0.859066        -1.951470
 H        -0.138745        -2.228001         0.506648
 H        -0.057946         0.878134         1.147680
 H         2.399239        -1.107524         3.499924
 H         0.917303        -1.904781         3.053530
 H         2.572382        -1.877944        -0.430260
