19
Iteration:  3214
 C         2.708409         1.202533        -0.241135
 C         1.701697         0.183241         0.098550
 C         0.558096        -0.358394        -0.873479
 C         0.468549        -1.291498         0.358548
 C         0.608934         0.046867         1.201200
 O         1.149796        -0.018059         2.584506
 C         1.647848        -1.323845         2.767692
 O         2.529111        -1.715206         1.625272
 C         2.003356        -1.366546         0.390943
 H         3.502550         1.253923         0.505547
 H         3.212498         0.936417        -1.132499
 H         2.461928         2.252201        -0.451537
 H        -0.122947         0.403839        -1.067483
 H         1.007365        -0.769116        -1.810987
 H        -0.330678        -2.013686         0.525764
 H        -0.231719         0.733939         1.059233
 H         2.325376        -1.273718         3.632455
 H         0.941555        -2.064973         2.952711
 H         2.442615        -1.821261        -0.498422
