19
Iteration:  2625
 C         2.796144         1.221152        -0.082172
 C         1.756807         0.152596         0.043238
 C         0.569042        -0.381686        -0.870767
 C         0.317379        -1.254384         0.433565
 C         0.667231         0.056558         1.084475
 O         1.001595        -0.112939         2.486516
 C         1.756997        -1.219392         2.774005
 O         2.662488        -1.668730         1.602936
 C         1.864914        -1.414706         0.346200
 H         3.460160         1.292122         0.898242
 H         3.406010         1.306027        -0.968953
 H         2.157335         2.145676        -0.111602
 H        -0.238579         0.187127        -1.218444
 H         0.876081        -1.075099        -1.700634
 H        -0.522564        -1.908815         0.587357
 H        -0.044238         0.904671         1.430454
 H         2.477097        -0.903469         3.601919
 H         1.221354        -2.150182         3.081823
 H         2.274332        -2.199837        -0.287920
