19
Iteration:  3991
 C         2.878303         1.114297        -0.141565
 C         1.663944         0.132981         0.070374
 C         0.557567        -0.467859        -0.877356
 C         0.350620        -1.198822         0.418958
 C         0.621720         0.039980         1.166795
 O         0.943271        -0.149640         2.490025
 C         1.733058        -1.207434         2.735476
 O         2.610294        -1.510953         1.646042
 C         1.996733        -1.371557         0.406868
 H         3.635671         1.071235         0.686796
 H         3.403085         0.827379        -1.039442
 H         2.605664         2.203894        -0.283315
 H        -0.246143         0.290120        -1.216597
 H         1.059784        -0.931437        -1.784114
 H        -0.343401        -2.034903         0.610571
 H        -0.162284         0.808491         1.104077
 H         2.372057        -1.009291         3.619246
 H         1.125980        -2.130422         2.597755
 H         2.495855        -2.006054        -0.330430
