19
Iteration:  2350
 C         2.701267         1.176695        -0.282695
 C         1.736635         0.126637         0.106079
 C         0.665965        -0.392228        -0.832454
 C         0.334084        -1.209895         0.358074
 C         0.580301         0.104809         1.213916
 O         0.979142        -0.115793         2.612157
 C         1.809416        -1.358188         2.665964
 O         2.649327        -1.583842         1.611151
 C         1.927122        -1.373728         0.451592
 H         3.532888         1.288489         0.427601
 H         3.346417         0.966827        -1.132335
 H         2.365130         2.163442        -0.448108
 H        -0.140823         0.357669        -1.168683
 H         1.128746        -0.897463        -1.692502
 H        -0.487508        -1.928162         0.488378
 H        -0.182403         0.847054         1.319027
 H         2.290623        -1.387243         3.642204
 H         1.060933        -2.147040         2.639951
 H         2.405199        -1.942298        -0.315247
