19
Iteration:  2962
 C         2.779876         1.149327        -0.144127
 C         1.715682         0.123199         0.054838
 C         0.578157        -0.390574        -0.952361
 C         0.377258        -1.279270         0.292093
 C         0.597177         0.026425         1.236033
 O         1.055572        -0.040304         2.553534
 C         1.811064        -1.228510         2.781052
 O         2.537811        -1.622865         1.646956
 C         1.910244        -1.347020         0.402850
 H         3.435336         0.921441         0.793080
 H         3.410833         1.038659        -1.015326
 H         2.354571         2.165551        -0.071266
 H        -0.177988         0.401917        -1.149124
 H         1.026630        -0.839224        -1.882075
 H        -0.194171        -2.249815         0.347064
 H        -0.192523         0.685869         1.183895
 H         2.558625        -1.210769         3.600251
 H         1.173198        -2.032013         2.913058
 H         2.306848        -1.894589        -0.476728
