19
Iteration:  3745
 C         2.578129         1.282533        -0.110456
 C         1.752827         0.046266         0.113686
 C         0.709838        -0.401826        -0.931590
 C         0.351137        -1.272127         0.409857
 C         0.618442         0.065740         1.126425
 O         1.280660        -0.006254         2.423618
 C         1.609021        -1.209445         2.739298
 O         2.568405        -1.759517         1.698186
 C         1.941392        -1.387024         0.432761
 H         3.499051         1.578758         0.464115
 H         2.947244         1.269236        -1.172834
 H         2.057384         2.190802        -0.066848
 H        -0.185934         0.291272        -1.203425
 H         0.912026        -1.057254        -1.804716
 H        -0.594910        -1.833810         0.459411
 H        -0.167670         0.822568         1.293694
 H         2.193061        -1.278841         3.686676
 H         1.001406        -2.080179         2.851655
 H         2.467702        -2.127452        -0.321917
