19
Iteration:  3581charge 0 multiplicity 1
 C         2.683580         1.311028        -0.141904
 C         1.655614         0.153128         0.032620
 C         0.622752        -0.403678        -0.940053
 C         0.443411        -1.302015         0.390087
 C         0.616877         0.017067         1.217030
 O         1.288399         0.060922         2.444712
 C         1.685962        -1.266460         2.762360
 O         2.438172        -1.789836         1.684580
 C         1.994024        -1.409277         0.422850
 H         3.529456         1.212635         0.615172
 H         2.944620         1.232688        -1.268703
 H         2.150395         2.239980         0.071197
 H        -0.250937         0.213193        -1.324490
 H         0.970512        -0.859103        -1.817991
 H        -0.272168        -2.056297         0.642848
 H        -0.229908         0.628963         1.344552
 H         2.192728        -1.290520         3.741756
 H         0.735956        -1.902134         2.910525
 H         2.617755        -1.939521        -0.407156
