19
Iteration:  3424
 C         2.657906         1.363929        -0.106774
 C         1.721708         0.148768         0.078044
 C         0.568534        -0.457638        -0.912945
 C         0.427243        -1.245973         0.410091
 C         0.663828         0.052902         1.148374
 O         1.225773         0.041897         2.482575
 C         1.691535        -1.254288         2.751011
 O         2.507810        -1.840455         1.631006
 C         1.941758        -1.453623         0.412054
 H         3.310299         1.366174         0.734371
 H         3.199355         1.281165        -1.079552
 H         2.176304         2.379372        -0.219032
 H        -0.257669         0.192439        -1.057261
 H         0.963966        -1.038227        -1.797088
 H        -0.473334        -1.900807         0.293602
 H        -0.093454         0.913044         1.180448
 H         2.395602        -1.220886         3.599126
 H         0.956970        -1.976130         3.056718
 H         2.453084        -2.057589        -0.393496
