19
Iteration:  1180charge 0 multiplicity 1
 C         2.744036         1.109428        -0.187218
 C         1.723272         0.103464         0.012094
 C         0.634120        -0.399530        -0.852987
 C         0.341148        -1.322527         0.426608
 C         0.547218         0.066245         1.231173
 O         1.050443        -0.068355         2.510411
 C         1.862394        -1.266397         2.707535
 O         2.625479        -1.542266         1.597614
 C         1.845651        -1.354229         0.470497
 H         3.676676         1.041038         0.301741
 H         3.016069         1.248686        -1.258702
 H         2.146691         2.038648         0.101871
 H        -0.197185         0.256287        -1.054142
 H         1.079220        -0.637347        -1.853838
 H        -0.402223        -2.181338         0.529047
 H        -0.247988         0.911298         1.259229
 H         2.531606        -1.019918         3.492725
 H         1.213809        -2.119522         2.840142
 H         2.427934        -1.989266        -0.283869
