19
Iteration:  1582charge 0 multiplicity 1
 C         2.613849         1.237964        -0.085088
 C         1.746544         0.093863        -0.030630
 C         0.544397        -0.546566        -0.887881
 C         0.289771        -1.200770         0.408922
 C         0.734873         0.131620         1.136417
 O         1.087062        -0.071529         2.516028
 C         1.767922        -1.352343         2.723629
 O         2.632915        -1.630448         1.635619
 C         1.975937        -1.288253         0.402090
 H         3.486594         1.121958         0.462363
 H         3.101909         1.315478        -1.035414
 H         2.136079         2.236363         0.103960
 H        -0.283793         0.083654        -1.202687
 H         1.077352        -1.123935        -1.727082
 H        -0.511917        -1.737520         0.939034
 H         0.177554         1.036626         1.326851
 H         2.334284        -1.376796         3.687524
 H         0.979842        -2.220479         2.815495
 H         2.339864        -1.993737        -0.317143
