19
Iteration:   496charge 0 multiplicity 1
 C         2.727642         1.146145        -0.120672
 C         1.596183         0.082013         0.107483
 C         0.520023        -0.331361        -0.866969
 C         0.371282        -1.360743         0.341390
 C         0.617610         0.044386         1.105295
 O         1.170493        -0.017497         2.457477
 C         1.853928        -1.178407         2.773145
 O         2.583075        -1.640727         1.659810
 C         1.896275        -1.378805         0.373446
 H         3.072093         1.290534         0.873953
 H         3.466930         0.568616        -0.703557
 H         2.454558         2.086955        -0.617997
 H        -0.159516         0.554399        -0.964335
 H         0.791580        -0.748651        -1.806948
 H        -0.194403        -2.219926         0.575923
 H        -0.234627         0.715641         1.286617
 H         2.541099        -0.984970         3.575088
 H         1.197830        -2.033856         3.134539
 H         2.445666        -1.958570        -0.299058
