19
Iteration:   491charge 0 multiplicity 1
 C         2.781639         1.129625        -0.100570
 C         1.623435         0.057302         0.113628
 C         0.479506        -0.360459        -0.880844
 C         0.376700        -1.348122         0.360121
 C         0.551256         0.021998         1.139767
 O         1.181936         0.044828         2.467999
 C         1.859744        -1.189089         2.757042
 O         2.599499        -1.640301         1.635322
 C         1.888231        -1.371747         0.359746
 H         3.120936         1.352171         0.985414
 H         3.602708         0.719045        -0.698414
 H         2.350302         2.100138        -0.460368
 H        -0.305869         0.370389        -1.041228
 H         0.784468        -0.797628        -1.900615
 H        -0.242138        -2.307994         0.482469
 H        -0.203364         0.811333         1.263306
 H         2.458855        -1.034529         3.713488
 H         1.065506        -2.004563         2.963334
 H         2.574736        -1.936656        -0.457729
