19
Iteration:  2419
 C         2.616340         1.292565        -0.015891
 C         1.714467         0.152168         0.058512
 C         0.652247        -0.480455        -0.900784
 C         0.330149        -1.222170         0.402814
 C         0.617881         0.032381         1.153220
 O         1.243936         0.042760         2.468624
 C         1.745253        -1.270876         2.670249
 O         2.577691        -1.715619         1.599392
 C         1.898401        -1.493852         0.445780
 H         3.336638         1.198172         0.818102
 H         3.318328         1.454979        -0.818302
 H         2.042863         2.238410         0.112136
 H        -0.133934         0.189274        -1.241784
 H         1.046303        -1.052155        -1.839638
 H        -0.527033        -1.804297         0.537040
 H        -0.167949         0.830388         1.108195
 H         2.400531        -1.212710         3.528325
 H         0.945780        -1.992011         2.816494
 H         2.137101        -2.187102        -0.385152
