19
Iteration:  1167
 C         2.741931         1.135267        -0.259264
 C         1.627610         0.096877         0.162864
 C         0.563801        -0.296788        -0.888454
 C         0.352358        -1.312420         0.308151
 C         0.511229        -0.034435         1.174861
 O         1.102191        -0.021057         2.584694
 C         1.823851        -1.210308         2.774472
 O         2.666553        -1.597622         1.639771
 C         1.967037        -1.399814         0.393457
 H         3.620351         0.884658         0.351451
 H         2.980220         1.002353        -1.286952
 H         2.522991         2.226734        -0.077404
 H        -0.182902         0.432223        -1.051273
 H         0.882664        -0.914621        -1.749115
 H        -0.403187        -2.034639         0.430514
 H        -0.365326         0.669235         1.169567
 H         2.459994        -1.087201         3.613538
 H         1.120367        -1.986524         2.981325
 H         2.447080        -2.015348        -0.468273
