19
Iteration:   665charge 0 multiplicity 1
 C         2.734087         1.154954        -0.171809
 C         1.678388         0.096124         0.130830
 C         0.492757        -0.363081        -0.897167
 C         0.402264        -1.296448         0.323439
 C         0.637779         0.073238         1.232460
 O         1.032980         0.042232         2.552483
 C         1.874562        -1.141500         2.804526
 O         2.585564        -1.773827         1.573734
 C         1.936693        -1.449986         0.337683
 H         3.459029         1.266432         0.693367
 H         3.252470         0.863479        -1.037437
 H         2.281056         2.146327        -0.383499
 H        -0.366905         0.328464        -0.899213
 H         0.852765        -0.887718        -1.859598
 H        -0.415183        -2.174846         0.147533
 H        -0.076272         0.931273         1.171688
 H         2.752611        -0.636264         3.372519
 H         1.281856        -1.887121         3.487915
 H         2.434578        -2.111896        -0.338973
