19
Iteration:  3252charge 0 multiplicity 1
 C         2.609123         1.327026        -0.106795
 C         1.681895         0.082868        -0.010751
 C         0.589439        -0.471014        -0.921734
 C         0.371502        -1.162795         0.412710
 C         0.695996         0.137967         1.034838
 O         1.230027        -0.066484         2.526297
 C         1.678238        -1.295982         2.748990
 O         2.582774        -1.814842         1.713951
 C         1.971915        -1.370038         0.426569
 H         3.261515         1.377602         0.811444
 H         3.288654         1.241913        -1.052074
 H         1.948386         2.228601        -0.111732
 H        -0.176011         0.391596        -1.111916
 H         0.959797        -0.860028        -1.884070
 H        -0.501991        -1.799891         0.643014
 H         0.030375         0.943494         1.268148
 H         2.244743        -1.287844         3.695442
 H         0.856450        -2.018008         2.705910
 H         2.348345        -2.084652        -0.321083
