19
Iteration:   683
 C         2.832180         1.212170        -0.216606
 C         1.679840         0.152212         0.033218
 C         0.481258        -0.383989        -0.837817
 C         0.389322        -1.279028         0.419526
 C         0.577037         0.001565         1.156739
 O         1.069541        -0.080316         2.486014
 C         1.938062        -1.165731         2.739086
 O         2.483740        -1.755489         1.641647
 C         1.932605        -1.345519         0.417891
 H         3.361765         1.447765         0.713154
 H         3.602815         0.834417        -0.967117
 H         2.409063         2.158355        -0.532990
 H        -0.270658         0.449407        -0.923146
 H         0.804116        -0.837563        -1.733189
 H        -0.217747        -2.001947         0.810126
 H        -0.370387         0.580199         1.156090
 H         2.594124        -0.796999         3.532585
 H         1.290572        -1.839473         3.247770
 H         2.409173        -1.912483        -0.400820
