19
Iteration:  4989charge 0 multiplicity 1
 C         2.732730         1.171006        -0.190150
 C         1.741193         0.080851        -0.001167
 C         0.640652        -0.481785        -0.975796
 C         0.363297        -1.204261         0.308689
 C         0.698626         0.135464         1.212905
 O         1.053661        -0.025360         2.577670
 C         1.700019        -1.282072         2.711348
 O         2.579922        -1.602404         1.748026
 C         1.876549        -1.443163         0.476680
 H         3.504074         1.277207         0.639007
 H         3.316739         1.089308        -1.133029
 H         2.356667         2.205775        -0.294664
 H        -0.113744         0.219695        -1.300387
 H         1.014738        -0.999700        -1.776775
 H        -0.380010        -2.040486         0.427779
 H         0.075028         1.026549         1.121960
 H         2.186636        -1.170013         3.661815
 H         0.930835        -2.190449         2.658977
 H         2.367605        -2.068934        -0.225594
