19
Iteration:  3619charge 0 multiplicity 1
 C         2.704184         1.167468        -0.078503
 C         1.678954         0.092036        -0.017277
 C         0.559305        -0.376741        -0.964200
 C         0.367219        -1.215023         0.414544
 C         0.655788         0.073524         1.167260
 O         1.113752         0.008368         2.499408
 C         1.749328        -1.278915         2.710382
 O         2.612830        -1.702995         1.723775
 C         1.945201        -1.446424         0.395861
 H         3.360061         1.425820         0.707761
 H         3.391464         1.250816        -0.897788
 H         1.987121         2.069308        -0.249045
 H        -0.106684         0.422122        -1.150970
 H         0.873497        -1.074414        -1.807246
 H        -0.450942        -1.965487         0.683012
 H        -0.181940         0.849935         1.096412
 H         2.456098        -1.127437         3.521293
 H         0.968528        -1.997151         2.815650
 H         2.594387        -1.918478        -0.332302
