19
Iteration:  4833
 C         2.828789         1.088246        -0.256903
 C         1.695004         0.098320         0.121901
 C         0.644974        -0.382804        -0.905367
 C         0.396518        -1.256037         0.374993
 C         0.517290         0.089581         1.141425
 O         0.953821        -0.014652         2.545125
 C         1.715032        -1.279162         2.713295
 O         2.652042        -1.624971         1.753906
 C         1.992216        -1.347228         0.380081
 H         3.274383         1.464027         0.692482
 H         3.636722         0.592856        -0.855719
 H         2.475074         2.039684        -0.767676
 H        -0.177136         0.408646        -1.112278
 H         0.746471        -1.049393        -1.715964
 H        -0.388916        -2.099196         0.408553
 H        -0.331433         0.786544         1.131864
 H         2.463500        -1.069958         3.520830
 H         1.016823        -2.009800         2.891883
 H         2.545071        -1.941785        -0.312369
