19
Iteration:  1191charge 0 multiplicity 1
 C         2.731118         1.185191        -0.142448
 C         1.666098         0.062195         0.033470
 C         0.572366        -0.497063        -0.922543
 C         0.372698        -1.182297         0.475112
 C         0.662965         0.104253         1.210903
 O         1.013629        -0.114392         2.523033
 C         1.835592        -1.281856         2.689755
 O         2.637217        -1.517158         1.602239
 C         1.907921        -1.390325         0.394873
 H         3.565852         0.978109         0.493472
 H         3.024145         1.319962        -1.200982
 H         2.358879         2.207733         0.204860
 H        -0.187439         0.231217        -1.145876
 H         0.878478        -1.198553        -1.743546
 H        -0.330317        -2.059531         0.644599
 H        -0.080297         0.976657         1.190725
 H         2.440492        -1.068605         3.547941
 H         1.168630        -2.072138         2.990710
 H         2.197454        -2.192498        -0.364273
