19
Iteration:   973charge 0 multiplicity 1
 C         2.797856         1.228766        -0.218638
 C         1.647634         0.158982         0.022167
 C         0.461891        -0.429536        -0.817478
 C         0.437621        -1.376822         0.349639
 C         0.601751         0.092941         1.237973
 O         1.167823         0.039363         2.540972
 C         1.732547        -1.324751         2.674002
 O         2.620714        -1.630955         1.652930
 C         1.936712        -1.372063         0.439155
 H         3.402843         0.898016         0.594983
 H         3.388406         1.026155        -1.116951
 H         2.429710         2.275567        -0.072123
 H        -0.469300         0.132071        -1.028363
 H         0.884283        -0.798320        -1.821274
 H        -0.275507        -2.290237         0.516062
 H        -0.365756         0.595046         1.157104
 H         2.217022        -1.266951         3.596559
 H         0.859194        -1.880702         2.655857
 H         2.361184        -1.933455        -0.330368
