19
Iteration:  2313
 C         2.874776         1.205262        -0.238812
 C         1.690128         0.168974        -0.043014
 C         0.498212        -0.370873        -0.838826
 C         0.385293        -1.271188         0.379692
 C         0.594622         0.047946         1.211601
 O         1.077957        -0.121521         2.574715
 C         1.731405        -1.392493         2.715866
 O         2.613530        -1.501403         1.677789
 C         1.962314        -1.346858         0.439734
 H         3.050606         1.356135         0.804283
 H         3.592423         0.657386        -0.886501
 H         2.402487         2.126296        -0.646341
 H        -0.320984         0.339231        -0.939080
 H         0.627435        -0.850969        -1.797509
 H        -0.410956        -2.116110         0.475904
 H        -0.278358         0.732056         1.061186
 H         2.351126        -1.552964         3.641226
 H         0.958892        -2.197218         2.521948
 H         2.561192        -1.993035        -0.292010
