19
Iteration:  3019
 C         2.765099         1.082352        -0.243787
 C         1.679823         0.148138         0.116865
 C         0.542366        -0.297790        -0.895908
 C         0.378017        -1.248822         0.352577
 C         0.589325         0.031914         1.166104
 O         1.073644        -0.095080         2.578605
 C         1.713323        -1.337083         2.716972
 O         2.638589        -1.506862         1.704106
 C         1.981254        -1.414850         0.398261
 H         3.488364         1.373846         0.557359
 H         3.383472         0.619379        -0.972752
 H         2.507688         2.149379        -0.550860
 H        -0.217117         0.416714        -1.116375
 H         0.898756        -0.753153        -1.915310
 H        -0.387482        -1.978062         0.436835
 H        -0.240959         0.683005         1.251364
 H         2.142841        -1.443451         3.704172
 H         0.990927        -2.110608         2.566524
 H         2.681236        -1.872810        -0.316704
