19
Iteration:   960
 C         2.744016         1.129808        -0.224809
 C         1.641926         0.146297         0.039487
 C         0.505798        -0.378267        -0.929420
 C         0.424415        -1.325769         0.308341
 C         0.519715         0.009025         1.280022
 O         1.229510         0.073835         2.612950
 C         1.694906        -1.240216         2.751090
 O         2.631597        -1.707061         1.714650
 C         1.986473        -1.337208         0.308415
 H         3.506126         1.421955         0.518007
 H         3.179923         1.089793        -1.191290
 H         2.203677         2.135361        -0.368211
 H        -0.276834         0.346699        -0.979818
 H         0.740161        -0.912711        -1.887036
 H        -0.212684        -2.221452         0.289302
 H        -0.416774         0.629012         1.474248
 H         2.228020        -1.442961         3.679170
 H         0.928869        -1.975229         2.704263
 H         2.576530        -1.964038        -0.377965
