19
Iteration:   799
 C         2.618514         1.098312        -0.195250
 C         1.668331         0.045194         0.126198
 C         0.649478        -0.325097        -0.966271
 C         0.313206        -1.206480         0.424416
 C         0.551718         0.150603         1.162712
 O         1.104291        -0.017912         2.512300
 C         1.874598        -1.291145         2.737888
 O         2.635282        -1.671515         1.665564
 C         1.969413        -1.431370         0.418773
 H         3.504502         1.202742         0.360307
 H         2.871644         0.839441        -1.237046
 H         2.092797         2.042205        -0.026211
 H        -0.146425         0.416443        -1.073082
 H         1.049848        -0.791944        -1.902480
 H        -0.562710        -1.937608         0.696284
 H        -0.101036         0.995560         1.057626
 H         2.455198        -1.160850         3.603779
 H         1.187383        -2.120735         3.069612
 H         2.509600        -1.919859        -0.400686
