19
Iteration:  3016charge 0 multiplicity 1
 C         2.774075         1.078737        -0.226996
 C         1.688776         0.139873         0.088886
 C         0.544262        -0.285717        -0.897175
 C         0.391712        -1.238342         0.354598
 C         0.547316         0.043307         1.188860
 O         1.060709        -0.100099         2.555407
 C         1.715778        -1.334309         2.717455
 O         2.675201        -1.502560         1.728788
 C         1.970923        -1.418404         0.388000
 H         3.537498         1.386757         0.555005
 H         3.351168         0.562203        -0.997565
 H         2.440470         2.072240        -0.520826
 H        -0.268024         0.425629        -1.128420
 H         0.884332        -0.779159        -1.812679
 H        -0.426455        -2.001082         0.433599
 H        -0.198633         0.805219         1.189192
 H         2.197864        -1.471945         3.734940
 H         0.991957        -2.263791         2.577511
 H         2.556734        -1.894111        -0.440370
