19
Iteration:  3725
 C         2.642890         1.292350        -0.191164
 C         1.743295         0.058279        -0.006902
 C         0.595576        -0.455011        -0.882926
 C         0.411043        -1.196302         0.359174
 C         0.702308         0.138646         1.187123
 O         1.107809         0.043051         2.541394
 C         1.717360        -1.356941         2.693257
 O         2.565745        -1.692868         1.691115
 C         1.924054        -1.466732         0.437761
 H         3.244737         1.303943         0.736642
 H         3.302704         1.374041        -1.090948
 H         2.026119         2.233831        -0.217654
 H        -0.134657         0.286497        -1.253504
 H         1.076503        -1.043928        -1.718795
 H        -0.262279        -2.003723         0.708347
 H        -0.015190         0.924028         1.164386
 H         2.177399        -1.522092         3.689291
 H         0.838045        -2.090435         2.725220
 H         2.567803        -2.218918        -0.125985
