19
Iteration:  1971charge 0 multiplicity 1
 C         2.733184         1.145381        -0.240555
 C         1.762175         0.087649         0.014467
 C         0.527864        -0.390546        -0.821636
 C         0.276351        -1.151091         0.410618
 C         0.677457         0.094364         1.279827
 O         1.010730        -0.148433         2.588640
 C         1.707004        -1.380385         2.681475
 O         2.709572        -1.476031         1.629713
 C         2.014948        -1.433694         0.380378
 H         3.294459         1.133092         0.745728
 H         3.381999         0.990209        -1.109023
 H         2.189973         2.127844        -0.396985
 H        -0.233555         0.379234        -1.124944
 H         0.896607        -0.834836        -1.808034
 H        -0.514394        -1.828483         0.424030
 H        -0.020644         0.888915         1.068569
 H         2.214352        -1.229391         3.625063
 H         0.980588        -2.201612         2.595986
 H         2.337096        -2.076408        -0.468594
