19
Iteration:  1964charge 0 multiplicity 1
 C         2.748809         1.182273        -0.200888
 C         1.726854        -0.003852         0.030217
 C         0.498236        -0.359943        -0.842699
 C         0.318886        -1.131283         0.471520
 C         0.702526         0.122133         1.209058
 O         0.980871        -0.117093         2.569967
 C         1.705587        -1.356520         2.660308
 O         2.722054        -1.549033         1.621393
 C         2.031383        -1.377692         0.348646
 H         3.185228         1.211972         0.765720
 H         3.339265         1.076725        -1.108844
 H         2.215750         2.156838        -0.274186
 H        -0.288239         0.281576        -1.266143
 H         0.787567        -1.185744        -1.585912
 H        -0.416727        -2.042256         0.574515
 H        -0.002810         1.001859         1.191455
 H         2.168460        -1.479713         3.724869
 H         1.023400        -2.216724         2.752407
 H         2.393650        -2.027239        -0.455054
