19
Iteration:  2288charge 0 multiplicity 1
 C         2.702995         1.151249        -0.164161
 C         1.671128         0.128208         0.159738
 C         0.539788        -0.299661        -0.873150
 C         0.408773        -1.310187         0.305073
 C         0.607638        -0.003156         1.208158
 O         1.115079        -0.000468         2.529644
 C         1.769012        -1.260965         2.738546
 O         2.590287        -1.675322         1.641172
 C         1.980768        -1.350401         0.347151
 H         3.131367         1.454481         0.794723
 H         3.372812         0.531344        -0.685793
 H         2.167502         1.982921        -0.650915
 H        -0.185053         0.411148        -1.070261
 H         1.043702        -0.624471        -1.821840
 H        -0.159424        -2.108266         0.574397
 H        -0.252839         0.661288         1.075206
 H         2.381209        -1.244969         3.591669
 H         0.899774        -1.986084         2.706939
 H         2.589503        -1.908033        -0.407729
