19
Iteration:   136charge 0 multiplicity 1
 C         2.730245         1.101446        -0.136019
 C         1.665300         0.145733         0.112933
 C         0.611197        -0.393364        -0.892226
 C         0.323367        -1.237242         0.286265
 C         0.602464         0.056502         1.168046
 O         0.944624        -0.091925         2.555810
 C         1.972490        -0.973351         2.819534
 O         2.549017        -1.821444         1.606863
 C         1.955893        -1.408069         0.387926
 H         3.552464         1.252662         0.595740
 H         3.251507         0.758362        -1.053623
 H         2.302061         2.121495        -0.354541
 H        -0.077843         0.433671        -1.102303
 H         1.024577        -0.871882        -1.816337
 H        -0.683915        -1.862802         0.588598
 H        -0.330352         0.606199         1.010136
 H         3.023921        -0.615263         3.168372
 H         1.751730        -1.834854         3.376532
 H         2.380115        -1.865995        -0.476052
