19
Iteration:   253
 C         2.719196         1.221862        -0.199101
 C         1.790469         0.084505        -0.037351
 C         0.597199        -0.355033        -0.919132
 C         0.316324        -1.134957         0.365070
 C         0.605007         0.029056         1.148539
 O         0.942426        -0.229029         2.548187
 C         2.042922        -0.976672         2.805869
 O         2.433553        -1.840926         1.690492
 C         1.954639        -1.410778         0.436321
 H         3.538876         1.379781         0.586360
 H         3.170996         1.027577        -1.156388
 H         2.117894         2.188231        -0.180746
 H        -0.064339         0.464863        -1.106508
 H         0.910344        -1.049618        -1.792145
 H        -0.502563        -1.895273         0.548532
 H        -0.152244         0.891295         1.289759
 H         3.015370        -0.419361         3.044611
 H         1.715648        -1.785657         3.544152
 H         2.348219        -2.176701        -0.304930
