19
Iteration:   830
 C         2.786674         1.229046        -0.155870
 C         1.695202         0.101006        -0.047708
 C         0.571826        -0.414062        -0.917546
 C         0.362751        -1.250101         0.504957
 C         0.628714         0.038480         1.174489
 O         1.117338        -0.064918         2.532915
 C         1.817954        -1.280052         2.768889
 O         2.553603        -1.545874         1.608706
 C         1.874310        -1.477059         0.381027
 H         3.456811         1.079112         0.704484
 H         3.392295         1.186937        -1.042468
 H         2.330917         2.250364        -0.109926
 H        -0.317961         0.167748        -1.192817
 H         0.894791        -1.027348        -1.844999
 H        -0.538561        -1.927815         0.814700
 H        -0.121057         0.846727         1.158699
 H         2.439495        -1.039014         3.622719
 H         1.053238        -2.046402         2.988634
 H         2.261913        -2.067762        -0.372901
