19
Iteration:   568
 C         2.712370         1.245963        -0.316660
 C         1.691798         0.082898        -0.006297
 C         0.533726        -0.346212        -0.933130
 C         0.351778        -1.249735         0.361944
 C         0.590337         0.020334         1.230986
 O         1.112475         0.003228         2.540163
 C         1.739327        -1.350668         2.820743
 O         2.663605        -1.703967         1.693667
 C         1.965661        -1.353215         0.489717
 H         3.481901         1.463534         0.508426
 H         3.216591         0.861997        -1.183647
 H         2.167820         2.169524        -0.659011
 H        -0.088521         0.534346        -0.955326
 H         0.831709        -0.781030        -1.953667
 H        -0.422932        -2.118371         0.449832
 H        -0.116651         0.871827         1.341474
 H         2.384977        -1.204798         3.726187
 H         1.018200        -2.117938         2.974257
 H         2.526291        -2.045541        -0.259949
