19
Iteration:  1248charge 0 multiplicity 1
 C         2.648535         1.189913        -0.193805
 C         1.599695         0.140450         0.166814
 C         0.634796        -0.359792        -0.851155
 C         0.399608        -1.330616         0.411013
 C         0.601937        -0.004796         1.200810
 O         1.200139         0.035758         2.506266
 C         1.705950        -1.227604         2.720008
 O         2.591867        -1.704408         1.612708
 C         2.026002        -1.391207         0.387711
 H         3.309977         1.561732         0.606183
 H         3.326515         0.830372        -1.063695
 H         2.051257         2.021801        -0.539034
 H        -0.302503         0.249878        -1.110688
 H         1.069120        -0.609991        -1.819012
 H        -0.520819        -2.080804         0.522112
 H        -0.325788         0.625843         1.104334
 H         2.451391        -1.267679         3.574772
 H         0.921997        -1.957393         2.741596
 H         2.389777        -1.856120        -0.517681
