19
Iteration:   494charge 0 multiplicity 1
 C         2.753070         1.140637        -0.117088
 C         1.597856         0.064778         0.119859
 C         0.504040        -0.339236        -0.869154
 C         0.372216        -1.361292         0.349842
 C         0.596670         0.037836         1.106002
 O         1.175440         0.006037         2.460608
 C         1.860429        -1.178852         2.767923
 O         2.588931        -1.640512         1.652040
 C         1.887027        -1.371400         0.366755
 H         3.081815         1.309601         0.941831
 H         3.504542         0.620363        -0.692910
 H         2.406066         2.120479        -0.565176
 H        -0.196915         0.490193        -0.993475
 H         0.788911        -0.772883        -1.861103
 H        -0.165896        -2.221292         0.533128
 H        -0.223926         0.754468         1.304199
 H         2.498255        -1.008645         3.631563
 H         1.128948        -2.060772         3.080241
 H         2.526581        -1.971821        -0.381767
