19
Iteration:  2334charge 0 multiplicity 1
 C         2.807320         1.151133        -0.227291
 C         1.666560         0.133992         0.075656
 C         0.561813        -0.427453        -0.901816
 C         0.427398        -1.158660         0.497925
 C         0.674999         0.158328         1.249506
 O         0.948197        -0.189324         2.591912
 C         1.658717        -1.371055         2.674143
 O         2.709178        -1.532317         1.596501
 C         1.974779        -1.328420         0.359657
 H         3.345699         1.416928         0.689865
 H         3.323428         0.636693        -1.082552
 H         2.138928         2.027791        -0.522947
 H        -0.253071         0.161889        -1.209707
 H         0.852294        -1.128669        -1.683050
 H        -0.377327        -1.950347         0.639678
 H        -0.043248         1.038456         1.185977
 H         2.324333        -1.221819         3.557339
 H         0.969589        -2.285139         2.638326
 H         2.379570        -2.023301        -0.462409
