19
Iteration:  4072charge 0 multiplicity 1
 C         2.680279         1.282427        -0.154619
 C         1.693436         0.138840        -0.011895
 C         0.627719        -0.476715        -0.904174
 C         0.426980        -1.212216         0.425607
 C         0.696816         0.088386         1.111762
 O         1.115283         0.050102         2.547922
 C         1.553721        -1.234017         2.736159
 O         2.585550        -1.797672         1.679416
 C         2.021120        -1.458780         0.408658
 H         3.053875         1.541728         0.823181
 H         3.521619         1.060582        -0.880396
 H         2.167257         2.146145        -0.572289
 H        -0.146451         0.303665        -1.197890
 H         1.132724        -1.079184        -1.665914
 H        -0.210712        -2.093524         0.687190
 H        -0.157255         0.825857         1.100520
 H         2.020852        -1.260057         3.785815
 H         0.855574        -2.056938         2.877314
 H         2.585083        -1.947467        -0.439260
