19
Iteration:  4684
 C         2.866172         1.037130        -0.241781
 C         1.686194         0.164765        -0.019983
 C         0.612513        -0.389865        -0.914177
 C         0.406566        -1.247872         0.403387
 C         0.561357        -0.023035         1.163926
 O         0.953514        -0.019372         2.605115
 C         1.689134        -1.280716         2.746092
 O         2.616295        -1.494677         1.697737
 C         1.988323        -1.309573         0.387038
 H         3.197986         1.118210         0.808970
 H         3.664859         0.488385        -0.732435
 H         2.794386         1.956967        -0.785123
 H        -0.123154         0.306411        -1.117263
 H         0.791014        -1.041096        -1.789777
 H        -0.217959        -2.124649         0.443355
 H        -0.269586         0.665529         1.164414
 H         2.199732        -1.136792         3.676095
 H         1.050998        -2.212321         2.905447
 H         2.501084        -2.176382        -0.217420
