19
Iteration:  2466
 C         2.835527         1.202758        -0.168072
 C         1.690669         0.174508         0.012921
 C         0.566537        -0.334676        -0.787970
 C         0.406739        -1.345457         0.436047
 C         0.579657         0.027024         1.257140
 O         1.012528        -0.059753         2.551498
 C         1.769184        -1.270541         2.671879
 O         2.561736        -1.602584         1.595064
 C         1.959481        -1.406158         0.353724
 H         3.437620         1.322775         0.712326
 H         3.683091         0.716082        -0.770654
 H         2.565431         2.137775        -0.750444
 H        -0.253918         0.380806        -0.992488
 H         0.770086        -0.796970        -1.746187
 H        -0.355557        -2.215370         0.536026
 H        -0.308985         0.686634         1.028371
 H         2.460109        -1.225856         3.588792
 H         1.042343        -2.082647         2.785020
 H         2.507779        -1.876499        -0.546561
