19
Iteration:  4041
 C         2.789147         1.136714        -0.189107
 C         1.674492         0.079133         0.100524
 C         0.616977        -0.359216        -0.844342
 C         0.371231        -1.265320         0.274713
 C         0.637276         0.031152         1.120680
 O         1.098659        -0.055699         2.501531
 C         1.647135        -1.319503         2.800174
 O         2.576945        -1.538859         1.706979
 C         1.930261        -1.375041         0.430550
 H         3.259625         1.726256         0.573615
 H         3.566949         0.712263        -0.881679
 H         2.210899         1.914574        -0.753157
 H        -0.097430         0.383422        -1.042259
 H         1.003125        -0.776140        -1.816499
 H        -0.209884        -2.244784         0.427317
 H        -0.190289         0.816872         1.086251
 H         2.412109        -1.081333         3.631497
 H         0.992513        -2.176493         2.912470
 H         2.675220        -1.879353        -0.293898
