19
Iteration:  4674
 C         2.904143         1.065089        -0.214665
 C         1.662683         0.164266        -0.043827
 C         0.530921        -0.436694        -0.933004
 C         0.471568        -1.277847         0.330326
 C         0.530299         0.065467         1.173247
 O         1.010732        -0.084445         2.546358
 C         1.695919        -1.245563         2.803738
 O         2.591884        -1.524252         1.705277
 C         1.989907        -1.325006         0.485813
 H         3.296479         1.406440         0.787767
 H         3.653540         0.436774        -0.719139
 H         2.668762         2.002301        -0.737589
 H        -0.336272         0.134911        -1.041325
 H         0.880814        -0.879982        -1.905450
 H        -0.264336        -1.968291         0.658309
 H        -0.198010         0.869381         1.124796
 H         2.217959        -1.321271         3.725163
 H         0.866318        -2.075129         2.722172
 H         2.579106        -1.960064        -0.364494
