19
Iteration:  3653
 C         2.907148         1.111393        -0.192016
 C         1.688183         0.125086         0.074563
 C         0.548330        -0.370405        -0.920988
 C         0.366049        -1.273199         0.417997
 C         0.605404         0.057961         1.207871
 O         0.977838        -0.109424         2.595523
 C         1.795884        -1.287130         2.677921
 O         2.609179        -1.509688         1.644667
 C         1.912006        -1.360742         0.370598
 H         3.236528         1.458714         0.760461
 H         3.596698         0.641458        -0.842079
 H         2.411946         1.963836        -0.737275
 H        -0.241272         0.271429        -1.274226
 H         0.813671        -1.000184        -1.817758
 H        -0.440205        -2.019167         0.496179
 H        -0.299248         0.767859         1.176950
 H         2.442957        -1.186358         3.546526
 H         1.117787        -2.062705         2.983653
 H         2.525464        -1.944081        -0.269478
