19
Iteration:  4346
 C         2.872701         1.005906        -0.224984
 C         1.697810         0.059746         0.077674
 C         0.660875        -0.392586        -0.966353
 C         0.358275        -1.251400         0.386040
 C         0.534919         0.161782         1.194251
 O         0.918882        -0.096310         2.501116
 C         1.748990        -1.316096         2.746970
 O         2.620925        -1.398324         1.686519
 C         1.961415        -1.397688         0.505925
 H         3.527745         1.011274         0.641871
 H         3.406880         0.434735        -0.988230
 H         2.682827         2.065430        -0.278113
 H        -0.168265         0.228032        -1.295183
 H         1.225475        -0.889713        -1.796794
 H        -0.433123        -2.013735         0.290681
 H        -0.258119         0.950822         1.067124
 H         2.256225        -1.137949         3.733161
 H         0.999980        -2.178798         2.640863
 H         2.531314        -1.966787        -0.154113
