19
Iteration:  2128
 C         2.683233         1.131513        -0.236632
 C         1.666746         0.144773         0.057452
 C         0.580127        -0.295599        -0.878205
 C         0.370627        -1.260083         0.314134
 C         0.625607         0.036448         1.222444
 O         1.055181        -0.100188         2.610306
 C         1.781746        -1.308479         2.772271
 O         2.598222        -1.630958         1.626447
 C         2.002376        -1.350395         0.399131
 H         3.298239         1.428210         0.584682
 H         3.448614         0.823216        -0.979333
 H         2.463948         2.116275        -0.660233
 H        -0.131834         0.579587        -1.096695
 H         0.881185        -0.764209        -1.871852
 H        -0.490906        -1.968756         0.453027
 H        -0.183765         0.781523         1.228731
 H         2.517106        -1.260609         3.576391
 H         1.135344        -2.190026         2.964122
 H         2.513687        -2.010624        -0.295902
