19
Iteration:  2379charge 0 multiplicity 1
 C         2.671744         1.242292        -0.198933
 C         1.662723         0.149426         0.014472
 C         0.528750        -0.290668        -0.890432
 C         0.499410        -1.284877         0.259649
 C         0.616754         0.017257         1.144001
 O         1.184222        -0.060367         2.518652
 C         1.748799        -1.276433         2.843679
 O         2.505102        -1.730260         1.699723
 C         1.983677        -1.388123         0.431141
 H         3.545586         1.130721         0.529114
 H         3.189253         1.097480        -1.226154
 H         2.314891         2.315116         0.011024
 H        -0.394809         0.306061        -0.963250
 H         0.827943        -0.689370        -1.833750
 H        -0.325025        -2.112237         0.407157
 H        -0.310413         0.617370         1.383421
 H         2.449794        -1.071735         3.753723
 H         0.875848        -1.987223         2.952769
 H         2.691757        -1.969882        -0.259116
