19
Iteration:  4847
 C         2.851268         1.026633        -0.221925
 C         1.655060         0.160770         0.054799
 C         0.564898        -0.354553        -0.910955
 C         0.374503        -1.270874         0.295071
 C         0.575036         0.003693         1.193436
 O         1.010476        -0.076216         2.498411
 C         1.718828        -1.236559         2.803390
 O         2.637419        -1.532344         1.697228
 C         1.997102        -1.342120         0.488030
 H         3.298117         1.401369         0.742290
 H         3.529736         0.342218        -0.757129
 H         2.562040         1.804930        -0.942711
 H        -0.349662         0.359078        -1.139557
 H         1.200160        -0.646686        -1.856089
 H        -0.420458        -2.056642         0.485324
 H        -0.209768         0.758768         1.141562
 H         2.117818        -1.040459         3.812812
 H         0.964796        -2.109585         2.691004
 H         2.533681        -1.899326        -0.232668
