19
Iteration:  2814
 C         2.778820         1.104041        -0.124910
 C         1.708668         0.113757         0.028490
 C         0.569022        -0.368872        -0.885598
 C         0.350617        -1.237699         0.449620
 C         0.597143         0.090360         1.251956
 O         0.977532        -0.146709         2.502600
 C         1.715040        -1.272002         2.698026
 O         2.727937        -1.536401         1.592538
 C         1.931008        -1.405121         0.445935
 H         3.487427         1.027649         0.695117
 H         3.388230         0.974944        -1.155480
 H         2.484151         2.199563        -0.344150
 H        -0.157566         0.337963        -1.237266
 H         0.938442        -0.690196        -1.844624
 H        -0.449853        -1.956748         0.444247
 H        -0.080481         1.089380         1.150645
 H         2.239605        -1.213182         3.613274
 H         1.105538        -2.150825         2.624960
 H         2.386347        -1.968085        -0.333081
