19
Iteration:  3206
 C         2.784384         1.205433        -0.244341
 C         1.702618         0.158178         0.087662
 C         0.548116        -0.342223        -0.905502
 C         0.456287        -1.241214         0.351159
 C         0.562854         0.111953         1.202101
 O         1.089007        -0.032304         2.560289
 C         1.689947        -1.375809         2.798368
 O         2.579019        -1.716828         1.629190
 C         1.997620        -1.342437         0.412440
 H         3.488360         1.193242         0.566860
 H         3.209107         0.720413        -1.183500
 H         2.200667         2.197175        -0.387325
 H        -0.308664         0.355040        -1.072315
 H         0.636581        -0.886839        -1.915083
 H        -0.160667        -2.134318         0.611037
 H        -0.216576         0.829468         1.202649
 H         2.449314        -1.244486         3.565337
 H         0.905066        -2.149144         2.936951
 H         2.642608        -1.962570        -0.282468
