19
Iteration:  3679
 C         2.826042         1.024096        -0.269441
 C         1.608827         0.191390         0.113807
 C         0.612239        -0.317617        -0.877077
 C         0.397596        -1.308845         0.327164
 C         0.532243         0.063246         1.241892
 O         1.038287        -0.112475         2.574999
 C         1.717150        -1.261864         2.695849
 O         2.696678        -1.542423         1.638670
 C         1.956997        -1.330534         0.469283
 H         3.223075         1.335760         0.734832
 H         3.443430         0.349174        -0.909313
 H         2.489553         1.717060        -0.963785
 H        -0.344199         0.373291        -0.944870
 H         0.929312        -0.661000        -1.858835
 H        -0.387535        -2.027357         0.144134
 H        -0.286452         0.789168         1.258481
 H         2.240291        -1.211922         3.678461
 H         0.942305        -2.033674         2.879815
 H         2.614607        -1.849792        -0.355888
