19
Iteration:  1666charge 0 multiplicity 1
 C         2.818412         1.247356        -0.213869
 C         1.743964         0.084724         0.023428
 C         0.560621        -0.360844        -0.917464
 C         0.252956        -1.223168         0.362774
 C         0.558116         0.097247         1.244042
 O         1.020280        -0.145395         2.621278
 C         1.851405        -1.336633         2.754220
 O         2.694617        -1.566752         1.603892
 C         1.878908        -1.407650         0.396178
 H         3.348371         1.598553         0.725164
 H         3.395904         0.836325        -1.020901
 H         2.147575         2.017565        -0.780918
 H         0.037096         0.334401        -1.567300
 H         0.939573        -1.186892        -1.505611
 H        -0.649420        -1.924503         0.677839
 H        -0.117106         0.984890         1.325835
 H         2.477178        -1.148713         3.593419
 H         1.185544        -2.129560         2.958704
 H         2.259892        -2.183092        -0.304096
