19
Iteration:  4193
 C         2.851368         1.071349        -0.184572
 C         1.699388         0.104996         0.099213
 C         0.685832        -0.391930        -0.918905
 C         0.278318        -1.206836         0.371738
 C         0.557670        -0.006636         1.208288
 O         0.997552        -0.025964         2.514958
 C         1.707457        -1.278874         2.688830
 O         2.628661        -1.449304         1.678833
 C         1.971331        -1.439862         0.454076
 H         3.540721         1.188581         0.628486
 H         3.424490         0.665903        -1.065699
 H         2.587754         2.044749        -0.634879
 H        -0.124786         0.358289        -1.105427
 H         1.190150        -0.856842        -1.831617
 H        -0.498445        -2.044056         0.398548
 H        -0.370928         0.676574         1.149354
 H         2.183069        -1.396993         3.749780
 H         0.916391        -2.089239         2.704072
 H         2.547423        -2.143021        -0.218883
