19
Iteration:  3177
 C         2.826411         1.172204        -0.236616
 C         1.701187         0.106280         0.064660
 C         0.608314        -0.318804        -0.870529
 C         0.305471        -1.186899         0.410199
 C         0.644439         0.062791         1.158175
 O         0.978204        -0.154705         2.582049
 C         1.706417        -1.344004         2.781869
 O         2.667889        -1.498128         1.559300
 C         1.938395        -1.439600         0.385190
 H         3.416234         1.120885         0.701338
 H         3.434408         0.634201        -1.019745
 H         2.476294         2.159441        -0.442497
 H        -0.185056         0.532261        -1.085873
 H         0.922024        -0.959242        -1.671124
 H        -0.503297        -1.869034         0.754413
 H        -0.152522         0.900352         1.325784
 H         2.410760        -1.195704         3.635039
 H         1.097826        -2.299365         2.986068
 H         2.410615        -2.181668        -0.270761
