19
Iteration:  4603
 C         2.653660         1.331296        -0.169225
 C         1.796741         0.101209         0.051804
 C         0.675119        -0.514604        -0.929558
 C         0.348959        -1.276356         0.328382
 C         0.638749         0.070898         1.072955
 O         1.180934         0.023917         2.447043
 C         1.655224        -1.166677         2.797460
 O         2.482319        -1.819059         1.728989
 C         2.022657        -1.393901         0.531259
 H         3.297817         1.400754         0.672049
 H         3.253191         1.153976        -1.034197
 H         2.057575         2.212667        -0.081042
 H        -0.206485         0.163871        -1.152894
 H         1.038278        -1.096619        -1.735384
 H        -0.670152        -1.817902         0.205804
 H        -0.254763         0.752077         1.073422
 H         2.402044        -0.953273         3.696189
 H         0.855470        -1.989652         3.001320
 H         2.561280        -1.915215        -0.165526
