19
Iteration:  4972charge 0 multiplicity 1
 C         2.746054         1.276916        -0.212123
 C         1.785775         0.118930         0.056163
 C         0.629116        -0.427497        -0.933145
 C         0.352577        -1.202383         0.427924
 C         0.613055         0.105629         1.068316
 O         1.098156         0.008170         2.434483
 C         1.627199        -1.288130         2.873889
 O         2.590593        -1.766593         1.726865
 C         2.007202        -1.453424         0.454939
 H         3.482163         1.321846         0.564411
 H         3.108405         1.262456        -1.251835
 H         2.093743         2.144804        -0.032470
 H        -0.145585         0.272486        -1.316883
 H         0.964431        -1.070151        -1.930069
 H        -0.474343        -1.853318         0.669711
 H        -0.220883         0.845657         0.984771
 H         2.314763        -1.243610         3.751851
 H         0.801419        -1.944733         3.033152
 H         2.364500        -2.147584        -0.390006
