19
Iteration:   185
 C         2.749591         1.082253         0.044284
 C         1.700857         0.025530         0.174448
 C         0.596456        -0.283868        -0.977577
 C         0.312745        -1.253533         0.199087
 C         0.583352         0.021763         1.202012
 O         0.898720        -0.276909         2.603915
 C         2.236948        -0.648717         2.571829
 O         2.383573        -1.818953         1.708721
 C         1.864463        -1.524445         0.379849
 H         3.509917         1.033826         0.832185
 H         3.338628         0.781333        -0.859919
 H         2.457808         2.125881        -0.072846
 H        -0.224529         0.420100        -1.188403
 H         0.986567        -0.740043        -1.897393
 H        -0.470494        -1.892283         0.224102
 H        -0.045477         0.905633         1.054476
 H         2.872430         0.047629         2.139110
 H         2.551603        -1.061169         3.580631
 H         2.386564        -2.119801        -0.438308
