19
Iteration:  3074charge 0 multiplicity 1
 C         2.589845         1.314610        -0.160344
 C         1.764533         0.080943         0.021970
 C         0.705994        -0.379984        -0.852888
 C         0.308250        -1.215946         0.395125
 C         0.641601         0.124932         1.135144
 O         1.223583        -0.074635         2.434551
 C         1.715862        -1.330847         2.763809
 O         2.557622        -1.767296         1.703464
 C         1.899671        -1.414417         0.445604
 H         3.213099         1.489375         0.749839
 H         3.237648         1.395426        -1.017376
 H         1.902132         2.228949        -0.404090
 H        -0.038545         0.362937        -1.057435
 H         1.027659        -1.027682        -1.781356
 H        -0.504116        -1.905604         0.266755
 H         0.183176         1.050141         1.213031
 H         2.219318        -1.182123         3.715569
 H         0.796705        -2.012675         2.910671
 H         2.395266        -2.072181        -0.291041
