19
Iteration:   446charge 0 multiplicity 1
 C         2.761885         1.129370        -0.068737
 C         1.677137         0.048730        -0.014796
 C         0.514257        -0.470678        -0.908124
 C         0.310368        -1.254413         0.402997
 C         0.635907         0.126864         1.191398
 O         1.171512        -0.004911         2.444757
 C         1.741782        -1.333332         2.673617
 O         2.680288        -1.559877         1.656293
 C         1.887633        -1.315193         0.466863
 H         3.450314         1.146308         0.806620
 H         3.254647         1.216355        -1.050112
 H         2.076294         1.975433        -0.071145
 H        -0.400491         0.109833        -1.144052
 H         0.860491        -1.062211        -1.781673
 H        -0.496928        -2.007167         0.711040
 H        -0.049455         0.968787         1.272239
 H         2.468117        -1.190920         3.541093
 H         1.016906        -2.143512         2.899603
 H         2.285187        -2.131030        -0.230319
