19
Iteration:  1821charge 0 multiplicity 1
 C         2.879351         1.052468        -0.260941
 C         1.700831         0.212669         0.087791
 C         0.477401        -0.328896        -0.801651
 C         0.417540        -1.349726         0.294353
 C         0.531036        -0.007284         1.347620
 O         1.070003        -0.054286         2.549593
 C         1.709573        -1.293408         2.688737
 O         2.658337        -1.533300         1.649842
 C         1.948944        -1.293502         0.395727
 H         3.602033         1.264123         0.493074
 H         3.275047         0.525944        -1.128826
 H         2.422644         2.060982        -0.602675
 H        -0.347512         0.313296        -0.782726
 H         0.676317        -0.673957        -1.811187
 H        -0.108039        -2.329248         0.006810
 H        -0.417692         0.472894         1.293600
 H         2.299951        -1.355831         3.655003
 H         0.838067        -2.056777         2.545234
 H         2.566875        -1.704220        -0.377012
