19
Iteration:  2859charge 0 multiplicity 1
 C         2.764122         1.180137        -0.277800
 C         1.682035         0.206296         0.130555
 C         0.578106        -0.255091        -0.878986
 C         0.456921        -1.261466         0.332447
 C         0.627254        -0.019974         1.212303
 O         1.039072        -0.087191         2.591521
 C         1.687137        -1.277983         2.729860
 O         2.601839        -1.690511         1.686644
 C         2.003317        -1.351588         0.382056
 H         3.291411         1.482548         0.588883
 H         3.323790         0.505935        -1.050930
 H         2.309687         1.944979        -0.942512
 H        -0.256699         0.400589        -1.210620
 H         0.829425        -0.821561        -1.746196
 H        -0.246857        -2.114563         0.523554
 H        -0.306911         0.664938         1.329425
 H         2.233501        -1.207638         3.641109
 H         0.962886        -2.100773         2.766223
 H         2.455930        -1.936468        -0.413113
