19
Iteration:  3419charge 0 multiplicity 1
 C         2.604722         1.334621        -0.136454
 C         1.704059         0.200751         0.065074
 C         0.621780        -0.470821        -0.885024
 C         0.443817        -1.244948         0.418183
 C         0.664038         0.035219         1.211248
 O         1.223580         0.059874         2.485016
 C         1.679697        -1.272029         2.742410
 O         2.494397        -1.850715         1.633772
 C         1.949070        -1.456656         0.358913
 H         3.419659         1.311107         0.682360
 H         3.295020         1.295787        -0.976037
 H         2.323895         2.388115        -0.130184
 H        -0.314910         0.168116        -1.120083
 H         0.913526        -0.906585        -1.855460
 H        -0.368461        -1.942315         0.363396
 H         0.002228         0.887688         1.036404
 H         2.416928        -1.109322         3.536807
 H         0.790224        -1.899763         3.126552
 H         2.464227        -2.043851        -0.362978
