19
Iteration:  2629charge 0 multiplicity 1
 C         2.804046         1.207975        -0.080644
 C         1.756022         0.148429         0.030054
 C         0.547993        -0.352010        -0.905187
 C         0.353905        -1.250069         0.408366
 C         0.642049         0.083819         1.108591
 O         1.010250        -0.130808         2.498319
 C         1.758747        -1.236820         2.801827
 O         2.661194        -1.631352         1.607804
 C         1.865705        -1.431230         0.364133
 H         3.352270         1.247860         0.788710
 H         3.451146         1.110567        -1.018237
 H         2.141058         2.092634        -0.172071
 H        -0.320597         0.277892        -1.286051
 H         0.862327        -1.057130        -1.736593
 H        -0.476450        -1.923217         0.623976
 H        -0.055388         0.781411         1.437483
 H         2.466273        -0.937130         3.595304
 H         1.220528        -2.197596         3.062439
 H         2.309539        -2.225384        -0.230608
