19
Iteration:   964
 C         2.777661         1.154721        -0.229484
 C         1.641286         0.160800         0.025090
 C         0.489951        -0.406558        -0.888709
 C         0.425409        -1.345985         0.304429
 C         0.522728         0.051081         1.272914
 O         1.219632         0.075491         2.611968
 C         1.708424        -1.255650         2.717683
 O         2.639876        -1.697788         1.713152
 C         1.973979        -1.336376         0.334197
 H         3.492000         1.309534         0.551708
 H         3.328192         1.104258        -1.225294
 H         2.217357         2.095643        -0.208046
 H        -0.384227         0.330906        -1.022258
 H         0.759996        -0.852435        -1.893344
 H        -0.236005        -2.333291         0.279617
 H        -0.444180         0.465609         1.410440
 H         2.187638        -1.404957         3.668568
 H         0.884428        -1.997510         2.670576
 H         2.412791        -2.003625        -0.367596
