19
Iteration:  3224charge 0 multiplicity 1
 C         2.691948         1.243994        -0.244121
 C         1.650511         0.163034         0.091974
 C         0.668190        -0.346900        -0.826227
 C         0.397443        -1.296089         0.362644
 C         0.708584        -0.036760         1.231748
 O         1.191198        -0.008411         2.546269
 C         1.687319        -1.243510         2.683533
 O         2.478630        -1.725579         1.677181
 C         1.945156        -1.362056         0.346063
 H         3.441009         1.306344         0.568882
 H         3.196306         1.029546        -1.116706
 H         2.184910         2.201158        -0.289438
 H        -0.181175         0.224344        -1.070139
 H         1.226024        -0.775410        -1.656498
 H        -0.362167        -2.060417         0.369452
 H        -0.171628         0.644734         1.415743
 H         2.150539        -1.383412         3.659632
 H         0.760588        -1.884625         2.639878
 H         2.485480        -2.002974        -0.347332
