19
Iteration:  1872charge 0 multiplicity 1
 C         2.738365         1.355942        -0.092997
 C         1.872080         0.142785         0.010025
 C         0.501294        -0.506101        -0.921912
 C         0.318266        -1.178504         0.419515
 C         0.597506         0.103174         1.156078
 O         1.056874        -0.079874         2.528173
 C         1.839089        -1.309501         2.760583
 O         2.566434        -1.727423         1.580028
 C         1.943463        -1.444118         0.421250
 H         3.133418         1.556645         0.954996
 H         3.484132         1.317990        -0.912711
 H         2.097471         2.216065        -0.327833
 H        -0.375975         0.149076        -1.258646
 H         0.736538        -1.094453        -1.878245
 H        -0.358171        -1.814587         0.873356
 H        -0.043641         0.989587         1.035990
 H         2.563824        -1.129360         3.485865
 H         1.192895        -2.071285         3.136248
 H         2.311972        -2.156829        -0.380329
