19
Iteration:   836charge 0 multiplicity 1
 C         2.776235         1.170949        -0.118313
 C         1.671243         0.113293        -0.028187
 C         0.522627        -0.454491        -0.914303
 C         0.425677        -1.280562         0.488361
 C         0.634727         0.111737         1.150125
 O         1.117253        -0.051555         2.535029
 C         1.808777        -1.280680         2.750835
 O         2.527385        -1.551157         1.637037
 C         1.881530        -1.420429         0.349492
 H         3.487313         1.115221         0.758544
 H         3.369814         1.154783        -1.080485
 H         2.339824         2.166361        -0.249074
 H        -0.234205         0.327811        -1.138088
 H         0.891264        -0.921662        -1.784875
 H        -0.228777        -1.998046         0.832561
 H        -0.207113         0.844144         1.214963
 H         2.644645        -1.215179         3.554596
 H         1.056229        -2.096286         2.901830
 H         2.348390        -2.232540        -0.406909
