19
Iteration:  2502charge 0 multiplicity 1
 C         2.766375         1.115770        -0.338318
 C         1.635796         0.199574         0.018091
 C         0.578767        -0.288228        -0.913694
 C         0.352716        -1.207776         0.358537
 C         0.594241         0.050492         1.209997
 O         1.039261        -0.177967         2.610117
 C         1.760612        -1.391832         2.739140
 O         2.660253        -1.555466         1.726560
 C         1.963261        -1.345732         0.433593
 H         3.179284         1.497769         0.648238
 H         3.465676         0.518741        -0.916990
 H         2.571556         1.987755        -0.935720
 H        -0.095462         0.556999        -1.128776
 H         0.934764        -0.804877        -1.722363
 H        -0.493794        -1.969706         0.388123
 H        -0.126260         0.778482         1.397956
 H         2.294956        -1.288533         3.643800
 H         1.051862        -2.276923         2.879837
 H         2.636524        -1.835052        -0.230320
