19
Iteration:   653
 C         2.653038         1.090890        -0.169613
 C         1.667158         0.051468         0.031353
 C         0.583450        -0.333175        -0.881927
 C         0.333921        -1.282819         0.278812
 C         0.647934         0.055371         1.206553
 O         1.067135         0.030702         2.600795
 C         1.949762        -1.128051         2.745001
 O         2.552234        -1.699902         1.629539
 C         1.923397        -1.457019         0.399560
 H         3.345972         1.043173         0.716956
 H         3.265750         1.038565        -1.034500
 H         2.182038         2.071371        -0.109873
 H        -0.085303         0.492414        -1.226027
 H         1.011212        -0.697762        -1.857019
 H        -0.526026        -2.013562         0.624399
 H        -0.269002         0.675181         1.111335
 H         2.808646        -0.925237         3.518234
 H         1.267209        -1.984750         3.128029
 H         2.417033        -1.938479        -0.379863
