19
Iteration:  4359charge 0 multiplicity 1
 C         2.927443         1.030158        -0.209467
 C         1.712707         0.149564         0.053117
 C         0.642183        -0.446524        -0.943390
 C         0.292554        -1.192493         0.291260
 C         0.554363         0.042886         1.149592
 O         0.887546        -0.121417         2.575043
 C         1.672948        -1.232749         2.763156
 O         2.753162        -1.452432         1.740638
 C         1.920365        -1.379736         0.432315
 H         3.631398         1.056028         0.608253
 H         3.424826         0.747547        -1.052466
 H         2.590277         1.987506        -0.532316
 H        -0.045181         0.210097        -1.291814
 H         0.996215        -1.094131        -1.800951
 H        -0.491005        -1.862512         0.562932
 H        -0.155056         0.924418         1.241013
 H         2.199350        -1.070406         3.691597
 H         1.101428        -2.204246         2.831788
 H         2.256677        -2.142340        -0.249361
