19
Iteration:  4651charge 0 multiplicity 1
 C         2.765252         1.179336        -0.189261
 C         1.737292         0.122071         0.090658
 C         0.611658        -0.482409        -0.866022
 C         0.377792        -1.273022         0.348008
 C         0.607726         0.064530         1.151579
 O         1.067255         0.054487         2.488110
 C         1.660430        -1.260164         2.717069
 O         2.596105        -1.642760         1.722486
 C         1.980787        -1.370771         0.419431
 H         3.169208         1.579427         0.763560
 H         3.508851         0.641583        -0.775957
 H         2.263878         2.015372        -0.649883
 H        -0.076070         0.270299        -1.107774
 H         0.929016        -1.095922        -1.723558
 H        -0.212318        -2.159808         0.515927
 H        -0.018199         0.938424         0.952663
 H         2.088859        -1.289946         3.679784
 H         0.749409        -2.063971         2.716533
 H         2.527802        -2.155431        -0.301818
