19
Iteration:  2892charge 0 multiplicity 1
 C         2.619970         1.286841        -0.166700
 C         1.788029         0.159996         0.010998
 C         0.597501        -0.456600        -0.943802
 C         0.381606        -1.231839         0.371365
 C         0.707733         0.110963         1.222547
 O         1.164259        -0.075724         2.556050
 C         1.656455        -1.314532         2.708544
 O         2.579991        -1.693349         1.687855
 C         1.905096        -1.397215         0.423850
 H         3.142296         1.576413         0.707716
 H         3.505414         1.160699        -0.881677
 H         2.045576         2.162677        -0.495155
 H        -0.085442         0.287180        -1.363411
 H         0.971988        -1.142456        -1.669319
 H        -0.343988        -2.032300         0.621717
 H         0.019081         1.031231         1.183476
 H         2.136811        -1.424090         3.667711
 H         0.916937        -2.095457         2.594807
 H         2.345237        -2.095533        -0.292928
