19
Iteration:    30charge 0 multiplicity 1
 C         2.743607         1.187151        -0.244646
 C         1.730384         0.083426         0.046877
 C         0.555129        -0.341307        -0.884787
 C         0.414618        -1.265087         0.271839
 C         0.542885         0.008506         1.157310
 O         1.059818         0.001491         2.592478
 C         1.937193        -1.161171         2.838351
 O         2.489084        -1.814459         1.638590
 C         1.963073        -1.383785         0.444694
 H         3.282048         1.407774         0.660761
 H         3.417028         1.042875        -1.134612
 H         2.120292         2.036736        -0.467358
 H        -0.301808         0.393422        -0.874035
 H         0.661461        -0.755527        -1.876282
 H        -0.324568        -2.001084         0.375724
 H        -0.247926         0.778909         1.129585
 H         2.677421        -0.615447         3.412538
 H         1.194600        -1.816284         3.362208
 H         2.529548        -1.990198        -0.345619
