19
Iteration:   990charge 0 multiplicity 1
 C         2.714442         1.119321        -0.099351
 C         1.671316         0.130174         0.042752
 C         0.521266        -0.465707        -0.863042
 C         0.381166        -1.218884         0.517402
 C         0.657855         0.065569         1.145048
 O         1.111314        -0.084693         2.490422
 C         1.718513        -1.258955         2.690762
 O         2.612183        -1.554120         1.619619
 C         2.000030        -1.353574         0.331356
 H         3.652304         1.104014         0.556794
 H         3.050160         0.968513        -1.129657
 H         2.271903         2.140764        -0.008819
 H        -0.260466         0.271494        -1.072210
 H         0.655986        -1.066349        -1.725287
 H        -0.326119        -1.905374         0.779910
 H        -0.028656         0.962643         1.184873
 H         2.373766        -1.178879         3.650799
 H         1.020292        -2.217770         2.824857
 H         2.476471        -2.054049        -0.509370
