19
Iteration:  2285
 C         2.681138         1.159805        -0.167779
 C         1.626583         0.115318         0.147459
 C         0.592412        -0.316166        -0.855295
 C         0.421969        -1.295664         0.333267
 C         0.618308         0.015301         1.161391
 O         1.102783         0.010363         2.542397
 C         1.802496        -1.273978         2.707015
 O         2.569527        -1.709187         1.625668
 C         1.981376        -1.334709         0.357813
 H         3.149040         1.437252         0.839641
 H         3.490043         0.555499        -0.636698
 H         2.084132         1.983550        -0.532740
 H        -0.236870         0.506490        -1.057706
 H         1.075179        -0.716400        -1.783297
 H        -0.287752        -2.144532         0.524937
 H        -0.265451         0.689051         1.114251
 H         2.447682        -1.172694         3.629067
 H         0.898158        -1.906257         2.788832
 H         2.632695        -1.873559        -0.289542
