19
Iteration:   664
 C         2.726921         1.149260        -0.174208
 C         1.668884         0.090042         0.129173
 C         0.496428        -0.364451        -0.900722
 C         0.397632        -1.293845         0.316125
 C         0.647419         0.073829         1.232941
 O         1.032422         0.046660         2.559454
 C         1.877439        -1.146705         2.801816
 O         2.585600        -1.769424         1.569441
 C         1.941919        -1.456227         0.345569
 H         3.437107         1.252972         0.693683
 H         3.264945         0.876267        -1.042009
 H         2.276855         2.135841        -0.343154
 H        -0.349860         0.364060        -0.911215
 H         0.875549        -0.862966        -1.835829
 H        -0.410693        -2.141195         0.154944
 H        -0.096767         0.911741         1.159249
 H         2.746988        -0.633397         3.387072
 H         1.287126        -1.857766         3.479165
 H         2.431722        -2.092621        -0.319673
