19
Iteration:  2320charge 0 multiplicity 1
 C         2.806488         1.177588        -0.241253
 C         1.748279         0.169242        -0.029819
 C         0.475739        -0.405771        -0.856537
 C         0.372620        -1.234097         0.428639
 C         0.626774         0.054543         1.221130
 O         1.017329        -0.131954         2.571790
 C         1.738806        -1.411375         2.690233
 O         2.629895        -1.500977         1.669257
 C         1.971777        -1.317918         0.409471
 H         3.205226         1.286509         0.814679
 H         3.595279         0.812904        -0.868980
 H         2.617073         2.153810        -0.707132
 H        -0.271924         0.337711        -1.073706
 H         0.815210        -0.893672        -1.823890
 H        -0.232263        -1.962335         0.791648
 H        -0.181506         0.804184         1.161243
 H         2.197685        -1.556020         3.625584
 H         1.019827        -2.255469         2.595490
 H         2.427375        -1.965995        -0.337791
