19
Iteration:  3754
 C         2.606204         1.305110        -0.144505
 C         1.698779         0.111459         0.067878
 C         0.676795        -0.402306        -0.873774
 C         0.383837        -1.240179         0.318296
 C         0.565736         0.030209         1.169731
 O         1.277564         0.040120         2.394827
 C         1.707331        -1.252854         2.745956
 O         2.514467        -1.783252         1.687475
 C         1.968593        -1.471548         0.515769
 H         3.439119         1.135950         0.589556
 H         2.965765         1.328760        -1.195375
 H         1.996564         2.169779         0.005259
 H        -0.048085         0.441771        -1.189257
 H         1.158517        -0.926162        -1.668563
 H        -0.339383        -2.014561         0.560523
 H        -0.307402         0.791385         1.210068
 H         2.236329        -1.144519         3.722178
 H         0.754881        -1.864879         2.806386
 H         2.624403        -1.974773        -0.258767
