19
Iteration:  4068
 C         2.695281         1.273236        -0.186398
 C         1.673132         0.110699        -0.020561
 C         0.656001        -0.425537        -0.915197
 C         0.430151        -1.225181         0.407436
 C         0.666845         0.044694         1.154563
 O         1.107608         0.050115         2.558900
 C         1.552713        -1.213841         2.711311
 O         2.615980        -1.797022         1.710515
 C         2.005660        -1.454129         0.409580
 H         3.058651         1.601111         0.828061
 H         3.548543         1.029954        -0.800691
 H         2.210244         2.185114        -0.545026
 H        -0.188790         0.321976        -1.145903
 H         0.978188        -1.035857        -1.749297
 H        -0.212761        -1.997830         0.694656
 H        -0.107670         0.764408         1.115323
 H         2.106502        -1.192791         3.608001
 H         0.779635        -2.040410         2.776994
 H         2.530577        -1.991070        -0.326829
