19
Iteration:  2555charge 0 multiplicity 1
 C         2.694153         1.260585        -0.111840
 C         1.696012         0.128485         0.037952
 C         0.543860        -0.395699        -0.900681
 C         0.504775        -1.255677         0.408349
 C         0.611066         0.065515         1.165418
 O         1.163356         0.048665         2.478663
 C         1.650919        -1.287224         2.744208
 O         2.592987        -1.811884         1.656781
 C         1.971956        -1.366477         0.384328
 H         3.441227         1.160301         0.600558
 H         3.087609         1.184600        -1.158545
 H         2.083516         2.167581         0.011286
 H        -0.386799         0.223974        -0.956810
 H         0.887090        -0.774123        -1.810905
 H        -0.205268        -2.125255         0.586055
 H        -0.120595         0.851050         1.216876
 H         2.139711        -1.295713         3.694378
 H         0.826861        -1.977252         2.766490
 H         2.513743        -1.983124        -0.357485
