19
Iteration:  4808
 C         2.743558         1.264661        -0.223078
 C         1.740146         0.066616         0.020860
 C         0.642119        -0.450644        -0.933876
 C         0.394670        -1.258368         0.396853
 C         0.725710         0.074398         1.140246
 O         1.038226        -0.032293         2.526874
 C         1.650091        -1.250776         2.751500
 O         2.529489        -1.655991         1.751408
 C         1.946106        -1.409063         0.403360
 H         3.266743         1.424817         0.729419
 H         3.464049         1.170857        -1.059827
 H         2.197065         2.225597        -0.337139
 H        -0.210642         0.023932        -1.313637
 H         1.258317        -1.040305        -1.610177
 H        -0.479655        -1.842880         0.648960
 H        -0.021915         0.893062         1.193478
 H         2.442796        -1.065498         3.455351
 H         0.844215        -1.967173         2.893491
 H         2.478616        -2.237092        -0.227371
