19
Iteration:  1610charge 0 multiplicity 1
 C         2.750342         1.175518        -0.260356
 C         1.702654         0.126459         0.036054
 C         0.583940        -0.333641        -0.837090
 C         0.410018        -1.300940         0.306407
 C         0.464258        -0.017297         1.289890
 O         1.094805        -0.025903         2.601235
 C         1.758935        -1.273258         2.675797
 O         2.644016        -1.578837         1.632989
 C         1.990953        -1.392780         0.431214
 H         3.722090         1.031927         0.364342
 H         3.111444         0.960190        -1.326590
 H         2.453623         2.231167        -0.178479
 H        -0.303320         0.320815        -0.960952
 H         0.934439        -0.726578        -1.773619
 H        -0.403320        -2.100472         0.402699
 H        -0.387485         0.690971         1.504830
 H         2.268877        -1.315504         3.614730
 H         0.957359        -1.971697         2.653776
 H         2.330261        -2.232906        -0.254238
