19
Iteration:  1124charge 0 multiplicity 1
 C         2.725826         1.299195        -0.222221
 C         1.749993         0.134639         0.037930
 C         0.556985        -0.479172        -0.833171
 C         0.350353        -1.251148         0.481007
 C         0.611336         0.043620         1.233501
 O         1.135337        -0.031670         2.501455
 C         1.744986        -1.307996         2.696188
 O         2.598861        -1.643559         1.611310
 C         1.937615        -1.398901         0.411566
 H         3.273682         1.551087         0.680365
 H         3.369306         0.951174        -1.034759
 H         2.229107         2.254616        -0.587411
 H        -0.162013         0.277931        -1.085276
 H         0.810876        -1.069149        -1.757305
 H        -0.366670        -2.038352         0.660334
 H        -0.217668         0.821222         1.175940
 H         2.334327        -1.254370         3.575084
 H         0.995574        -2.111825         2.859435
 H         2.300228        -2.044896        -0.452874
