19
Iteration:  3449charge 0 multiplicity 1
 C         2.636215         1.199158        -0.122065
 C         1.723915         0.051460         0.026372
 C         0.631356        -0.364812        -0.973601
 C         0.307900        -1.191954         0.413121
 C         0.624279         0.053431         1.201586
 O         1.178393        -0.021886         2.464129
 C         1.751197        -1.335918         2.736618
 O         2.637063        -1.652109         1.700392
 C         1.873631        -1.407753         0.395878
 H         3.049549         1.297087         0.920695
 H         3.450125         1.206747        -0.942410
 H         2.111756         2.106588        -0.356017
 H        -0.067444         0.489715        -1.049624
 H         0.948743        -0.871771        -1.835035
 H        -0.465435        -1.949420         0.474567
 H         0.071941         0.939813         1.169752
 H         2.357194        -1.220941         3.632831
 H         1.007545        -2.120971         2.993434
 H         2.345346        -2.122590        -0.284154
