19
Iteration:  4392
 C         2.794657         1.134321        -0.209767
 C         1.706493         0.171444         0.070132
 C         0.653667        -0.406752        -0.902392
 C         0.513728        -1.285749         0.307320
 C         0.630956         0.055537         1.092628
 O         1.005138        -0.017746         2.550049
 C         1.614809        -1.182273         2.787559
 O         2.543561        -1.618726         1.712332
 C         1.956282        -1.487058         0.428988
 H         3.422328         1.370451         0.633135
 H         3.322233         0.774183        -0.995620
 H         2.340496         2.074227        -0.392736
 H        -0.215179         0.112027        -0.959206
 H         1.069178        -0.760398        -1.883332
 H        -0.192195        -2.057457         0.505870
 H        -0.167188         0.880671         1.086859
 H         2.393651        -0.976444         3.508058
 H         0.903109        -2.006113         3.131320
 H         2.329092        -2.203162        -0.231074
