19
Iteration:  4823charge 0 multiplicity 1
 C         2.803587         1.184400        -0.221642
 C         1.779902         0.114635         0.055744
 C         0.677602        -0.468025        -0.906550
 C         0.429273        -1.228960         0.420389
 C         0.561412         0.101237         1.162146
 O         0.946151        -0.007489         2.558599
 C         1.716139        -1.244959         2.758204
 O         2.584109        -1.657417         1.636462
 C         1.956056        -1.412128         0.429783
 H         3.330140         1.466690         0.722262
 H         3.506345         0.777150        -0.982612
 H         2.238494         2.032546        -0.692955
 H        -0.100685         0.411631        -1.070515
 H         0.782791        -1.125348        -1.780568
 H        -0.205327        -2.175290         0.532254
 H        -0.238359         0.840515         1.002728
 H         2.218682        -1.081156         3.762640
 H         1.002419        -2.036100         2.851761
 H         2.327623        -2.008161        -0.346009
