19
Iteration:   952
 C         2.639000         1.177336        -0.231465
 C         1.657735         0.104400         0.081137
 C         0.555413        -0.323622        -0.942489
 C         0.435775        -1.274073         0.331827
 C         0.573235        -0.041993         1.264895
 O         1.223544         0.030036         2.567135
 C         1.714198        -1.271168         2.802721
 O         2.579434        -1.681312         1.673898
 C         2.012578        -1.368253         0.358516
 H         3.405192         1.266288         0.499120
 H         3.093580         0.752258        -1.199132
 H         2.215504         2.134670        -0.547806
 H        -0.287243         0.416051        -1.088466
 H         0.816496        -0.915519        -1.889922
 H        -0.373725        -2.132918         0.504313
 H        -0.091602         0.789234         1.227999
 H         2.302932        -1.260697         3.686366
 H         0.804988        -1.885544         2.839394
 H         2.651302        -1.758443        -0.370212
