19
Iteration:  2091charge 0 multiplicity 1
 C         2.732914         1.324322        -0.033938
 C         1.633311         0.159346         0.010957
 C         0.528171        -0.433261        -0.827200
 C         0.389064        -1.278051         0.411435
 C         0.626752         0.007814         1.157450
 O         1.249907         0.025666         2.461054
 C         1.708203        -1.276899         2.661900
 O         2.539934        -1.749292         1.576005
 C         1.995359        -1.400712         0.460417
 H         3.234298         1.136830         0.948841
 H         3.295742         0.986838        -0.903525
 H         2.209926         2.308964        -0.166630
 H        -0.140877         0.357681        -1.091467
 H         0.868658        -1.054405        -1.683916
 H        -0.363091        -2.001742         0.659663
 H        -0.286036         0.669299         1.198916
 H         2.410723        -1.137718         3.532494
 H         0.830897        -1.904757         2.755018
 H         2.377788        -1.998005        -0.445774
