19
Iteration:   925charge 0 multiplicity 1
 C         2.718596         1.347492        -0.291660
 C         1.773837         0.108493         0.014946
 C         0.611598        -0.446019        -0.879484
 C         0.382882        -1.210017         0.445299
 C         0.586317         0.125510         1.237512
 O         1.055318        -0.091953         2.521722
 C         1.819176        -1.306018         2.750892
 O         2.619837        -1.738392         1.654527
 C         1.867551        -1.448680         0.445436
 H         3.276463         1.714721         0.625092
 H         3.385339         1.190874        -1.118063
 H         1.928441         2.045456        -0.613534
 H        -0.195877         0.235567        -1.095224
 H         0.783988        -1.054311        -1.750541
 H        -0.336288        -1.936879         0.571718
 H        -0.052589         1.056740         1.188678
 H         2.419073        -1.013871         3.653865
 H         1.020966        -1.955848         2.977268
 H         2.287065        -2.038161        -0.437984
