19
Iteration:  3347charge 0 multiplicity 1
 C         2.805048         1.086791        -0.167692
 C         1.760450         0.093279         0.061253
 C         0.570220        -0.427403        -0.844122
 C         0.360918        -1.190691         0.403889
 C         0.641412         0.125768         1.233468
 O         0.949236        -0.100205         2.635941
 C         1.748214        -1.330374         2.679160
 O         2.607476        -1.501449         1.586009
 C         1.968008        -1.362923         0.278391
 H         3.500106         1.258463         0.607829
 H         3.475937         0.877864        -1.049039
 H         2.460682         2.139682        -0.462529
 H        -0.230163         0.250378        -1.075799
 H         0.728364        -0.984491        -1.814777
 H        -0.343461        -2.026569         0.682900
 H        -0.112597         0.923425         1.392573
 H         2.377177        -1.299830         3.608864
 H         1.025144        -2.256348         2.718766
 H         2.391610        -2.167417        -0.396408
