19
Iteration:  4740charge 0 multiplicity 1
 C         2.795945         1.167064        -0.192558
 C         1.743795         0.155359         0.005502
 C         0.602770        -0.493053        -1.001085
 C         0.399599        -1.277315         0.380169
 C         0.589766         0.061476         1.142414
 O         1.091492         0.008875         2.539923
 C         1.689729        -1.219664         2.799289
 O         2.508076        -1.679269         1.754738
 C         1.968809        -1.370502         0.398714
 H         3.478369         1.325661         0.656840
 H         3.315303         1.426897        -1.103107
 H         2.213801         2.045538         0.088389
 H        -0.214532         0.073145        -1.272540
 H         1.002216        -1.075833        -1.874785
 H        -0.193109        -2.118957         0.652248
 H        -0.134564         0.887985         1.125186
 H         2.301657        -1.000331         3.618760
 H         0.946590        -2.019337         2.789582
 H         2.637730        -2.083065        -0.288937
