19
Iteration:   542charge 0 multiplicity 1
 C         2.684739         1.267318        -0.331692
 C         1.700811         0.158633         0.069705
 C         0.673493        -0.445224        -0.874339
 C         0.403194        -1.194104         0.459439
 C         0.711098         0.103035         1.235710
 O         0.961403        -0.141766         2.558043
 C         1.854658        -1.272990         2.765039
 O         2.507478        -1.706319         1.588352
 C         1.912787        -1.382332         0.440421
 H         3.276324         1.705207         0.428252
 H         3.333243         0.731395        -1.061893
 H         2.158853         2.026290        -0.870427
 H        -0.244114         0.152594        -1.153922
 H         1.134225        -0.969658        -1.686010
 H        -0.441948        -1.898108         0.579030
 H         0.132444         1.011837         1.294062
 H         2.645430        -0.926206         3.457547
 H         1.295553        -2.089847         3.261774
 H         2.346126        -1.975177        -0.265897
