19
Iteration:  1555
 C         2.643450         1.335987        -0.092179
 C         1.719637         0.103556         0.032526
 C         0.596932        -0.396900        -0.891955
 C         0.399278        -1.317951         0.420279
 C         0.616676         0.029443         1.183874
 O         1.164426         0.069944         2.462258
 C         1.763793        -1.285019         2.727799
 O         2.629868        -1.724177         1.637565
 C         1.858877        -1.474242         0.375863
 H         3.430387         1.386882         0.734124
 H         3.299050         1.305048        -1.018093
 H         2.105414         2.255890        -0.133787
 H        -0.253800         0.277898        -1.106592
 H         0.929464        -0.908513        -1.759764
 H        -0.311745        -2.086583         0.825451
 H        -0.320703         0.651568         1.237618
 H         2.374030        -1.237581         3.638846
 H         0.954055        -2.015133         2.841952
 H         2.341505        -2.084801        -0.441770
