19
Iteration:  3709charge 0 multiplicity 1
 C         2.764140         1.238607        -0.244078
 C         1.749333         0.140635        -0.052751
 C         0.578333        -0.422523        -0.905616
 C         0.434239        -1.258880         0.477182
 C         0.663815         0.069595         1.200043
 O         1.063420        -0.079841         2.600715
 C         1.635469        -1.300796         2.743107
 O         2.579673        -1.624972         1.648495
 C         2.004779        -1.391446         0.393923
 H         3.218599         1.322787         0.761454
 H         3.533757         0.968187        -0.976160
 H         2.213440         2.137457        -0.525350
 H        -0.300553         0.270554        -1.004266
 H         0.731692        -1.018836        -1.783521
 H        -0.389562        -1.959579         0.533262
 H        -0.176951         0.853315         1.133281
 H         2.240351        -1.182791         3.633404
 H         0.812473        -2.000270         2.823862
 H         2.306329        -2.000334        -0.428600
