19
Iteration:  1678charge 0 multiplicity 1
 C         2.651591         1.160888        -0.157501
 C         1.708368         0.059338         0.134567
 C         0.661762        -0.419759        -0.924293
 C         0.247774        -1.109326         0.400647
 C         0.624811         0.083132         1.257012
 O         1.096160        -0.090458         2.562782
 C         1.815456        -1.289158         2.668916
 O         2.650245        -1.567169         1.578136
 C         1.908535        -1.458635         0.411556
 H         3.217082         1.621008         0.677809
 H         3.472600         0.866846        -0.788755
 H         2.119607         2.083613        -0.650681
 H        -0.105684         0.216776        -1.330550
 H         1.140435        -0.955986        -1.729811
 H        -0.496207        -2.018855         0.446061
 H        -0.078720         0.917736         1.225241
 H         2.439655        -1.211085         3.545624
 H         1.161005        -2.128448         2.711726
 H         2.203851        -2.169666        -0.354448
