19
Iteration:  3775
 C         2.705388         1.301038        -0.092058
 C         1.666726         0.153603        -0.014348
 C         0.582149        -0.422544        -0.999893
 C         0.477886        -1.353988         0.323803
 C         0.650000         0.086575         1.175832
 O         1.176183         0.068386         2.545863
 C         1.717168        -1.218198         2.834173
 O         2.496734        -1.841266         1.696437
 C         1.943213        -1.371556         0.333236
 H         3.562664         1.007774         0.593476
 H         3.027745         1.202851        -1.165194
 H         2.249716         2.328604        -0.081463
 H        -0.454024         0.075807        -1.076230
 H         0.989374        -0.963349        -1.806588
 H        -0.236725        -2.175096         0.531925
 H        -0.238680         0.854335         1.273540
 H         2.331652        -1.018052         3.764872
 H         0.897471        -2.003103         3.109865
 H         2.630559        -2.027334        -0.258638
