19
Iteration:  1523charge 0 multiplicity 1
 C         2.691621         1.156512        -0.164582
 C         1.639658         0.171345         0.053397
 C         0.497514        -0.347984        -0.959445
 C         0.447705        -1.342055         0.213607
 C         0.554526         0.043014         1.298297
 O         1.191410         0.042951         2.521804
 C         1.820109        -1.288319         2.846921
 O         2.588661        -1.758237         1.701275
 C         1.960308        -1.304123         0.348981
 H         3.075120         1.535422         0.827154
 H         3.366738         0.723355        -0.891035
 H         2.244447         1.970046        -0.674153
 H        -0.275480         0.389271        -1.191135
 H         0.793240        -0.772738        -1.867559
 H        -0.293000        -2.164294         0.552426
 H        -0.388832         0.596665         1.300157
 H         2.586877        -1.180094         3.632409
 H         0.919638        -2.005797         3.062035
 H         2.592170        -1.692367        -0.470388
