19
Iteration:  2895
 C         2.606065         1.300903        -0.158034
 C         1.766076         0.130536         0.005716
 C         0.588495        -0.477247        -0.957754
 C         0.406373        -1.194180         0.367105
 C         0.716704         0.106102         1.211941
 O         1.169035        -0.058503         2.569490
 C         1.660697        -1.331898         2.728705
 O         2.574197        -1.685418         1.675071
 C         1.911848        -1.408482         0.395006
 H         3.194508         1.607952         0.772328
 H         3.514396         1.145873        -0.858070
 H         2.080716         2.201545        -0.417674
 H        -0.147487         0.306587        -1.385539
 H         1.077944        -1.171847        -1.650901
 H        -0.392808        -1.964031         0.692925
 H         0.045050         0.924580         1.192751
 H         2.113790        -1.455463         3.762527
 H         0.794612        -2.031356         2.676923
 H         2.390903        -2.154843        -0.316212
