19
Iteration:  1029
 C         2.733977         1.212595        -0.179037
 C         1.672808         0.156260         0.100027
 C         0.575054        -0.356884        -0.922907
 C         0.354024        -1.272326         0.354253
 C         0.623082         0.031338         1.186325
 O         1.127966        -0.098962         2.524754
 C         1.838420        -1.224867         2.815978
 O         2.595715        -1.589089         1.624911
 C         1.848945        -1.477204         0.380833
 H         3.469340         1.329898         0.577865
 H         3.153062         0.827683        -1.168397
 H         2.399890         2.225650        -0.490470
 H        -0.279513         0.335801        -1.177185
 H         1.078378        -0.864537        -1.798113
 H        -0.523887        -2.019334         0.620177
 H        -0.290483         0.621745         1.233746
 H         2.598747        -1.012579         3.551484
 H         1.253038        -2.065895         3.206440
 H         2.241940        -2.179193        -0.281613
