19
Iteration:  2258charge 0 multiplicity 1
 C         2.746181         1.428421        -0.074491
 C         1.705564         0.127567         0.060703
 C         0.573859        -0.483289        -0.984638
 C         0.340237        -1.188744         0.361255
 C         0.598042         0.051455         1.152323
 O         1.137225        -0.084740         2.497492
 C         1.842056        -1.233241         2.789260
 O         2.556145        -1.785858         1.627923
 C         1.874119        -1.429522         0.385871
 H         3.274724         1.550001         0.835515
 H         3.536935         1.198388        -0.797306
 H         2.073844         2.284785        -0.234439
 H        -0.159707         0.155688        -1.350256
 H         1.054399        -1.141047        -1.710366
 H        -0.297615        -2.037736         0.654000
 H        -0.162188         0.804924         1.293281
 H         2.503878        -0.982157         3.600530
 H         1.082039        -1.936596         3.187937
 H         2.273209        -2.227092        -0.281567
