19
Iteration:   157
 C         2.833686         1.150447        -0.033096
 C         1.716377         0.066912         0.005129
 C         0.577021        -0.369818        -0.943381
 C         0.348000        -1.246886         0.388621
 C         0.519773         0.055909         1.209315
 O         0.894597        -0.203900         2.498430
 C         2.134040        -0.925900         2.633132
 O         2.472078        -1.769365         1.672994
 C         1.827407        -1.382873         0.408323
 H         3.451748         1.067930         0.893473
 H         3.601824         0.973566        -0.769442
 H         2.473199         2.212736        -0.021299
 H        -0.293036         0.198124        -1.256120
 H         1.074728        -1.020072        -1.722836
 H        -0.436509        -2.164069         0.540906
 H        -0.168596         0.938151         1.073716
 H         3.127787        -0.267085         2.778429
 H         2.098342        -1.476257         3.560434
 H         2.143990        -2.059619        -0.345224
