19
Iteration:  2424
 C         2.594635         1.271659        -0.013800
 C         1.696328         0.147290         0.032404
 C         0.673373        -0.472581        -0.935457
 C         0.284773        -1.238955         0.399336
 C         0.634253         0.069671         1.159082
 O         1.240494         0.029728         2.455699
 C         1.770532        -1.316140         2.676123
 O         2.604621        -1.687058         1.633382
 C         1.881229        -1.484837         0.442433
 H         3.294541         1.258515         0.838289
 H         3.388208         1.422868        -0.798293
 H         2.125558         2.259268         0.131995
 H        -0.113132         0.246074        -1.262058
 H         0.990971        -1.025982        -1.758077
 H        -0.682560        -1.884931         0.496052
 H        -0.053603         0.935738         1.252216
 H         2.426940        -1.162788         3.577235
 H         0.884582        -2.011123         2.787857
 H         2.236359        -2.220155        -0.323314
