19
Iteration:  1038
 C         2.715007         1.140037        -0.230779
 C         1.679165         0.112445         0.088740
 C         0.532554        -0.346591        -0.867786
 C         0.397300        -1.227221         0.344960
 C         0.593291        -0.012328         1.225469
 O         1.111141        -0.054581         2.495237
 C         1.850955        -1.224518         2.798462
 O         2.537951        -1.670924         1.617486
 C         1.947904        -1.348691         0.411479
 H         3.389837         1.321013         0.596475
 H         3.460794         0.910400        -1.011513
 H         2.180405         2.146111        -0.398994
 H        -0.219566         0.338020        -1.235493
 H         0.982795        -0.875433        -1.772298
 H        -0.357614        -2.066232         0.595218
 H        -0.305554         0.671710         1.329920
 H         2.622823        -0.964846         3.494551
 H         1.186025        -2.103945         3.189812
 H         2.512008        -1.871624        -0.345297
