19
Iteration:   862
 C         2.786190         1.130327        -0.175411
 C         1.592137         0.137669         0.075159
 C         0.503616        -0.364736        -0.833795
 C         0.375010        -1.342245         0.403885
 C         0.536312        -0.007688         1.220140
 O         1.167343         0.055700         2.507338
 C         1.700049        -1.191278         2.701821
 O         2.682180        -1.659396         1.653060
 C         2.006652        -1.403523         0.350312
 H         3.388600         1.197657         0.793644
 H         3.460983         0.748290        -0.911499
 H         2.594807         2.175364        -0.578085
 H        -0.456687         0.159484        -0.918589
 H         0.857143        -0.883582        -1.826866
 H        -0.626260        -1.958581         0.443035
 H        -0.253873         0.795432         1.244591
 H         2.302678        -1.320169         3.662401
 H         0.915085        -1.987203         2.534118
 H         2.664370        -1.751066        -0.418306
