19
Iteration:  1832charge 0 multiplicity 1
 C         2.848280         1.074787        -0.226118
 C         1.619233         0.107204         0.169971
 C         0.524648        -0.293641        -0.837870
 C         0.411721        -1.308878         0.321422
 C         0.450128        -0.010495         1.205634
 O         1.172190        -0.041886         2.585189
 C         1.729243        -1.337100         2.662387
 O         2.650643        -1.478135         1.651446
 C         1.964301        -1.348980         0.395018
 H         3.578801         1.397473         0.465921
 H         3.416026         0.760372        -1.081711
 H         2.431522         2.063613        -0.654941
 H        -0.259444         0.344782        -1.058863
 H         0.839816        -0.825486        -1.742348
 H        -0.402774        -2.116878         0.270139
 H        -0.428388         0.605627         1.273100
 H         2.214158        -1.413522         3.690973
 H         0.899411        -2.171761         2.674130
 H         2.414298        -1.895604        -0.406429
