19
Iteration:  4569charge 0 multiplicity 1
 C         2.757725         1.137114        -0.162641
 C         1.697550         0.133493         0.066209
 C         0.674906        -0.472609        -0.921879
 C         0.393027        -1.319077         0.319545
 C         0.645799         0.052942         1.141455
 O         1.078247         0.043129         2.535618
 C         1.636521        -1.191497         2.767958
 O         2.535423        -1.621315         1.686990
 C         2.015223        -1.408775         0.456298
 H         3.456457         1.027035         0.657906
 H         3.243443         1.144419        -1.127120
 H         2.316764         2.140192        -0.138557
 H        -0.214091         0.153042        -1.199998
 H         0.938100        -0.928676        -1.873042
 H        -0.420811        -2.119596         0.285180
 H        -0.221153         0.759952         1.020485
 H         2.330958        -1.071903         3.680634
 H         0.827370        -2.021745         2.865818
 H         2.511072        -1.991062        -0.238644
