19
Iteration:     1
 C         2.764766         1.156186        -0.083747
 C         1.712231         0.095231         0.117532
 C         0.631230        -0.328624        -0.915457
 C         0.344708        -1.239515         0.297651
 C         0.565894         0.010120         1.194244
 O         0.913570        -0.228298         2.540058
 C         2.174324        -0.844732         2.646682
 O         2.374177        -1.841713         1.673570
 C         1.880826        -1.442372         0.414179
 H         3.409905         1.269961         0.792089
 H         3.404137         0.909828        -0.938787
 H         2.300955         2.128383        -0.284479
 H        -0.126252         0.423557        -1.152097
 H         0.999650        -0.820130        -1.820024
 H        -0.428717        -1.998215         0.406620
 H        -0.201838         0.787730         1.181028
 H         2.965132        -0.081882         2.559274
 H         2.229249        -1.322053         3.628047
 H         2.371873        -2.055221        -0.345791
