19
Iteration:  4395charge 0 multiplicity 1
 C         2.768042         1.164957        -0.199971
 C         1.725112         0.169707         0.091598
 C         0.663968        -0.398360        -0.920858
 C         0.494029        -1.295081         0.318826
 C         0.652639         0.034117         1.101122
 O         1.026950         0.008817         2.537694
 C         1.617502        -1.162514         2.773735
 O         2.539822        -1.650946         1.721692
 C         1.942738        -1.479121         0.437661
 H         3.433831         1.338404         0.656536
 H         3.318641         0.715350        -1.048805
 H         2.312927         2.142220        -0.456772
 H        -0.313118         0.167975        -1.015787
 H         1.055851        -0.777089        -1.832929
 H        -0.233562        -2.158396         0.438296
 H        -0.223764         0.727253         0.975544
 H         2.318514        -1.106917         3.677657
 H         0.908980        -1.933224         3.098857
 H         2.418518        -2.225766        -0.371194
