19
Iteration:  3426
 C         2.672486         1.372536        -0.100820
 C         1.724649         0.129927         0.073831
 C         0.562505        -0.450547        -0.920364
 C         0.413069        -1.252072         0.396091
 C         0.658723         0.073322         1.131743
 O         1.225804         0.031600         2.481952
 C         1.708820        -1.246830         2.753850
 O         2.509347        -1.834034         1.634298
 C         1.944328        -1.451819         0.429664
 H         3.315885         1.397519         0.781764
 H         3.192324         1.251542        -1.115900
 H         2.105221         2.317341        -0.217065
 H        -0.271578         0.236763        -1.072566
 H         0.946008        -1.045348        -1.718495
 H        -0.470127        -1.911104         0.352155
 H        -0.096589         0.838505         1.223599
 H         2.387930        -1.243484         3.607600
 H         0.933800        -2.040617         3.010021
 H         2.419547        -2.044613        -0.386648
