19
Iteration:  3524charge 0 multiplicity 1
 C         2.751657         1.099198        -0.230183
 C         1.732496         0.081483         0.050878
 C         0.607744        -0.326440        -0.857093
 C         0.344095        -1.279409         0.323611
 C         0.615535         0.130241         1.235157
 O         1.029751        -0.062203         2.609071
 C         1.743868        -1.360606         2.780190
 O         2.646976        -1.525826         1.609064
 C         1.906269        -1.374281         0.383929
 H         3.488543         1.299921         0.561804
 H         3.334147         0.733692        -1.154472
 H         2.197082         1.996735        -0.538720
 H        -0.145120         0.469187        -1.035314
 H         0.935664        -0.964161        -1.681246
 H        -0.369953        -2.095586         0.235828
 H        -0.156353         0.943931         1.262705
 H         2.352706        -1.392984         3.678958
 H         1.007941        -2.171135         2.680846
 H         2.541588        -2.031616        -0.239620
