19
Iteration:  1143
 C         2.753445         1.146273        -0.273303
 C         1.620151         0.170078         0.013472
 C         0.460356        -0.333788        -0.884748
 C         0.492941        -1.375445         0.337435
 C         0.602771         0.067066         1.178797
 O         1.135385        -0.049569         2.585168
 C         1.796070        -1.275098         2.793371
 O         2.539175        -1.670535         1.684905
 C         1.991787        -1.284747         0.389506
 H         3.426643         1.054880         0.628352
 H         3.299692         0.974614        -1.179691
 H         2.361860         2.154722        -0.252522
 H        -0.515026         0.157714        -0.928040
 H         0.776159        -0.759104        -1.835852
 H        -0.151466        -2.167674         0.568942
 H        -0.260893         0.719462         1.220458
 H         2.475519        -1.144133         3.664540
 H         1.044041        -2.004177         3.048943
 H         2.575141        -1.819564        -0.416355
