19
Iteration:  1253charge 0 multiplicity 1
 C         2.645267         1.210663        -0.225237
 C         1.657272         0.155654         0.156753
 C         0.615896        -0.384858        -0.909327
 C         0.370784        -1.350319         0.369522
 C         0.548566         0.003220         1.259677
 O         1.186076         0.039173         2.546126
 C         1.735275        -1.225682         2.728134
 O         2.611157        -1.746989         1.641893
 C         2.014433        -1.356968         0.374229
 H         3.289395         1.584001         0.599380
 H         3.364561         0.873169        -0.927323
 H         2.056008         2.067935        -0.631085
 H        -0.180643         0.335349        -1.103855
 H         0.923417        -0.779578        -1.910797
 H        -0.418146        -2.011905         0.481238
 H        -0.181612         0.804117         1.193378
 H         2.452952        -1.228821         3.520120
 H         0.893220        -1.998653         2.723037
 H         2.434725        -1.927654        -0.496795
