19
Iteration:  2477
 C         2.896124         1.108688        -0.262690
 C         1.734501         0.200244         0.157616
 C         0.484952        -0.322471        -0.785579
 C         0.493725        -1.348700         0.419371
 C         0.575197         0.003117         1.235541
 O         0.947956        -0.067134         2.575246
 C         1.704373        -1.273611         2.663191
 O         2.617072        -1.632166         1.570369
 C         1.919828        -1.292940         0.332027
 H         3.276571         1.604707         0.593847
 H         3.646019         0.590319        -0.948172
 H         2.559550         2.085497        -0.767964
 H        -0.315269         0.422384        -0.934785
 H         0.934970        -0.700042        -1.698403
 H         0.052753        -2.399910         0.549995
 H        -0.240473         0.784736         1.316133
 H         2.380544        -1.021659         3.547207
 H         1.005323        -2.076492         2.886307
 H         2.383833        -1.976257        -0.492000
