19
Iteration:   708
 C         2.687475         1.148382        -0.191969
 C         1.647025         0.107433         0.026979
 C         0.567838        -0.401151        -0.940455
 C         0.337725        -1.200269         0.318791
 C         0.612620         0.105818         1.189289
 O         1.137614        -0.063215         2.635601
 C         1.892474        -1.233229         2.787979
 O         2.606409        -1.683743         1.635712
 C         1.889538        -1.393700         0.366907
 H         3.217424         1.560574         0.708083
 H         3.388969         0.673920        -0.823955
 H         2.264925         2.004270        -0.738320
 H        -0.293154         0.255267        -1.179060
 H         1.031058        -1.049727        -1.744955
 H        -0.354764        -2.111737         0.563837
 H        -0.095480         0.974323         1.242701
 H         2.398670        -1.035008         3.794570
 H         1.089607        -1.941326         3.061004
 H         2.268785        -1.963317        -0.420464
