19
Iteration:  4197
 C         2.865215         1.129115        -0.201129
 C         1.694918         0.098889         0.098028
 C         0.654620        -0.370123        -0.920263
 C         0.328733        -1.277762         0.353605
 C         0.569568         0.041375         1.219898
 O         0.999524        -0.024853         2.524324
 C         1.723548        -1.271537         2.695831
 O         2.610413        -1.473958         1.706608
 C         1.957120        -1.469032         0.452666
 H         3.545158         1.158810         0.686510
 H         3.418178         0.653889        -0.977932
 H         2.604965         2.071838        -0.708300
 H        -0.100969         0.297989        -1.230571
 H         1.100498        -0.818022        -1.862961
 H        -0.505429        -1.979281         0.375293
 H        -0.370492         0.594166         1.192009
 H         2.166813        -1.344405         3.653950
 H         0.860234        -1.971843         2.546793
 H         2.430473        -2.227703        -0.251919
