19
Iteration:  3451charge 0 multiplicity 1
 C         2.642722         1.204332        -0.125698
 C         1.708648         0.044673         0.025728
 C         0.631277        -0.357870        -0.966400
 C         0.320252        -1.191503         0.416318
 C         0.634607         0.054394         1.192994
 O         1.169307        -0.023063         2.473275
 C         1.746748        -1.327090         2.747234
 O         2.640009        -1.640924         1.688766
 C         1.885228        -1.422114         0.395330
 H         3.046979         1.253440         0.943281
 H         3.443192         1.080404        -0.917336
 H         2.086347         2.105331        -0.357286
 H        -0.107061         0.481349        -1.034451
 H         0.966137        -0.910047        -1.819390
 H        -0.492515        -1.880021         0.389365
 H         0.051749         0.941450         1.218599
 H         2.378904        -1.205163         3.634355
 H         0.980136        -2.181370         2.947292
 H         2.302840        -2.104399        -0.331547
