19
Iteration:  1256charge 0 multiplicity 1
 C         2.641743         1.230297        -0.230315
 C         1.690059         0.148243         0.135182
 C         0.597221        -0.395675        -0.928975
 C         0.373857        -1.335135         0.341998
 C         0.532301         0.013162         1.277001
 O         1.176109         0.036857         2.564725
 C         1.753807        -1.240886         2.723290
 O         2.617973        -1.760617         1.649747
 C         1.994014        -1.344311         0.382685
 H         3.218551         1.578764         0.598092
 H         3.394055         0.854941        -0.934625
 H         2.100128         2.107676        -0.686886
 H        -0.127705         0.381506        -1.080350
 H         0.883600        -0.903408        -1.886060
 H        -0.419680        -2.094843         0.468998
 H        -0.174934         0.905220         1.274667
 H         2.411733        -1.201997         3.581694
 H         0.938019        -1.967923         2.784933
 H         2.513632        -1.974684        -0.462874
