19
Iteration:  1663
 C         2.837617         1.242197        -0.250228
 C         1.731707         0.113377         0.005386
 C         0.552446        -0.372342        -0.918528
 C         0.266588        -1.236766         0.380656
 C         0.563156         0.075765         1.219824
 O         0.998574        -0.154847         2.632337
 C         1.866770        -1.355076         2.770908
 O         2.692330        -1.569174         1.616036
 C         1.865752        -1.383887         0.405905
 H         3.319898         1.583040         0.710785
 H         3.511138         0.853152        -1.075410
 H         2.258885         2.057436        -0.658195
 H        -0.038714         0.467318        -1.490885
 H         0.869289        -1.202670        -1.593046
 H        -0.564306        -1.814515         0.606210
 H        -0.109029         0.971124         1.392469
 H         2.496861        -1.067562         3.612889
 H         1.109411        -2.128638         3.011999
 H         2.317809        -2.119527        -0.361343
