19
Iteration:  1581charge 0 multiplicity 1
 C         2.614507         1.241999        -0.083034
 C         1.751135         0.098069        -0.035909
 C         0.536721        -0.555444        -0.883185
 C         0.297127        -1.196346         0.404590
 C         0.725352         0.135457         1.137698
 O         1.085968        -0.072399         2.517818
 C         1.769086        -1.341229         2.716215
 O         2.630673        -1.641077         1.636525
 C         1.988325        -1.294967         0.405076
 H         3.488524         1.137005         0.479745
 H         3.096992         1.344349        -0.999254
 H         2.123917         2.241535         0.100081
 H        -0.260954         0.076278        -1.196543
 H         1.044278        -1.127814        -1.709871
 H        -0.557708        -1.740261         0.938334
 H         0.204792         1.059795         1.314402
 H         2.352627        -1.380383         3.648636
 H         0.981126        -2.226150         2.801906
 H         2.310360        -2.003477        -0.295721
