19
Iteration:  4762charge 0 multiplicity 1
 C         2.645331         1.267450        -0.120986
 C         1.682033         0.140135         0.070098
 C         0.678913        -0.478085        -0.849709
 C         0.460170        -1.325243         0.372919
 C         0.648655         0.072974         1.154901
 O         1.158176         0.139650         2.397348
 C         1.629655        -1.251923         2.775770
 O         2.484501        -1.741437         1.711458
 C         1.977019        -1.508126         0.396976
 H         3.569845         1.193232         0.480923
 H         2.962285         1.161397        -1.158751
 H         2.430425         2.318114         0.002310
 H         0.036081         0.264834        -1.144809
 H         1.120300        -1.077470        -1.688256
 H        -0.278066        -2.075232         0.531248
 H        -0.143095         0.842956         1.098091
 H         2.213798        -1.161047         3.635756
 H         0.764201        -1.832660         2.614914
 H         2.811269        -1.996143        -0.217467
