19
Iteration:   363charge 0 multiplicity 1
 C         2.653590         1.224504        -0.311374
 C         1.748637         0.077565         0.036255
 C         0.615829        -0.372225        -0.922277
 C         0.350422        -1.174035         0.365361
 C         0.590513         0.114419         1.236517
 O         1.133653        -0.028958         2.551826
 C         1.775200        -1.350605         2.744226
 O         2.614395        -1.656761         1.691810
 C         1.918255        -1.465695         0.479155
 H         3.366029         1.402802         0.555290
 H         3.350075         0.964399        -1.104731
 H         2.147958         2.181414        -0.672472
 H        -0.205011         0.289476        -1.160948
 H         0.792746        -1.103080        -1.782041
 H        -0.409620        -1.937894         0.531599
 H        -0.040116         1.082041         1.302786
 H         2.306907        -1.328148         3.711096
 H         0.971000        -2.111037         3.008839
 H         2.360643        -2.099215        -0.324858
