19
Iteration:  1129
 C         2.736861         1.292192        -0.257396
 C         1.713251         0.141543         0.058767
 C         0.547391        -0.494893        -0.815541
 C         0.386813        -1.256563         0.455216
 C         0.589214         0.035627         1.192535
 O         1.139932        -0.022636         2.509385
 C         1.733719        -1.322743         2.736761
 O         2.574174        -1.635639         1.578861
 C         1.930940        -1.381310         0.435241
 H         3.346777         1.433812         0.669297
 H         3.509006         1.031573        -1.034090
 H         2.329069         2.259287        -0.494118
 H        -0.079779         0.446658        -0.981685
 H         0.716972        -0.976595        -1.769315
 H        -0.234560        -2.186669         0.675195
 H        -0.168928         0.791241         1.156704
 H         2.495704        -1.252605         3.583585
 H         1.022307        -2.181810         2.913925
 H         2.412706        -1.982191        -0.306093
