19
Iteration:  2338charge 0 multiplicity 1
 C         2.799486         1.149636        -0.234208
 C         1.682097         0.159443         0.085965
 C         0.601563        -0.433471        -0.877398
 C         0.410180        -1.163899         0.471752
 C         0.657058         0.187927         1.254750
 O         0.947161        -0.192253         2.597600
 C         1.674899        -1.349722         2.675329
 O         2.699867        -1.543285         1.581536
 C         1.976018        -1.365040         0.387555
 H         3.295226         1.383258         0.714716
 H         3.184623         0.681903        -1.168797
 H         2.111752         1.921697        -0.513723
 H        -0.321536         0.199183        -1.246710
 H         0.864489        -1.127807        -1.669796
 H        -0.438944        -1.964466         0.519843
 H        -0.049063         0.995591         1.101843
 H         2.384088        -1.322931         3.562313
 H         1.064847        -2.249724         2.608559
 H         2.374869        -1.945483        -0.439031
