19
Iteration:  2129
 C         2.686031         1.137847        -0.242718
 C         1.672320         0.138399         0.070067
 C         0.596679        -0.291941        -0.883970
 C         0.366709        -1.260508         0.331445
 C         0.614225         0.034918         1.208257
 O         1.050502        -0.100315         2.614369
 C         1.791232        -1.319873         2.773836
 O         2.600466        -1.618036         1.624150
 C         1.995348        -1.362299         0.387430
 H         3.290786         1.425559         0.600084
 H         3.428266         0.823230        -1.006668
 H         2.465364         2.086833        -0.685384
 H        -0.125790         0.602140        -1.071627
 H         0.881876        -0.727004        -1.871799
 H        -0.515458        -1.955214         0.481608
 H        -0.184330         0.776375         1.247585
 H         2.508723        -1.225113         3.574956
 H         1.094985        -2.207427         2.949964
 H         2.501890        -2.010080        -0.269336
