19
Iteration:   677charge 0 multiplicity 1
 C         2.810539         1.210738        -0.176044
 C         1.739518         0.152883         0.060089
 C         0.492725        -0.368031        -0.820541
 C         0.400827        -1.305616         0.380308
 C         0.550751         0.027969         1.172890
 O         1.064487        -0.062020         2.497140
 C         1.908274        -1.098866         2.767392
 O         2.516886        -1.781621         1.656074
 C         1.909106        -1.372791         0.346282
 H         3.557796         1.446434         0.631701
 H         3.401044         0.788788        -0.954634
 H         2.364274         2.146952        -0.585046
 H        -0.410958         0.227572        -0.986923
 H         0.612747        -0.867074        -1.869475
 H        -0.273153        -2.261397         0.727766
 H        -0.220364         0.826821         1.147980
 H         2.758557        -0.824059         3.491812
 H         1.290649        -2.011658         3.204087
 H         2.307556        -1.916983        -0.528949
