19
Iteration:   685
 C         2.834002         1.205797        -0.233064
 C         1.661630         0.152378         0.029611
 C         0.479457        -0.384883        -0.845373
 C         0.395761        -1.262377         0.425738
 C         0.589006        -0.001116         1.162007
 O         1.068525        -0.077804         2.481744
 C         1.933838        -1.187989         2.737090
 O         2.482247        -1.747679         1.630717
 C         1.940875        -1.342566         0.432011
 H         3.300874         1.428409         0.765910
 H         3.596402         0.879391        -0.924319
 H         2.423689         2.161755        -0.535516
 H        -0.228424         0.480656        -0.920592
 H         0.864358        -0.856785        -1.751596
 H        -0.315828        -2.038120         0.834006
 H        -0.388494         0.544312         1.177049
 H         2.634084        -0.770184         3.549299
 H         1.276502        -1.850203         3.292079
 H         2.438705        -1.913182        -0.294722
