19
Iteration:  4672charge 0 multiplicity 1
 C         2.899728         1.073243        -0.206071
 C         1.675585         0.158602        -0.028148
 C         0.514143        -0.443921        -0.945634
 C         0.474190        -1.295597         0.326813
 C         0.541995         0.096772         1.180220
 O         1.020131        -0.089427         2.528370
 C         1.684117        -1.256069         2.803071
 O         2.592379        -1.530009         1.718087
 C         1.987354        -1.329261         0.485595
 H         3.315121         1.448797         0.725216
 H         3.645696         0.492969        -0.726899
 H         2.681985         1.963113        -0.722586
 H        -0.378344         0.108713        -1.065935
 H         0.893275        -0.845719        -1.866199
 H        -0.319596        -1.993136         0.657786
 H        -0.226131         0.857765         1.126885
 H         2.283910        -1.260026         3.699835
 H         0.868949        -2.025020         2.679967
 H         2.541666        -1.861120        -0.345085
