19
Iteration:  3361
 C         2.730309         1.139563        -0.205755
 C         1.731127         0.082694         0.004038
 C         0.604927        -0.314703        -0.951043
 C         0.427821        -1.186835         0.469787
 C         0.636270         0.096285         1.215225
 O         1.014315        -0.108159         2.588161
 C         1.718408        -1.346051         2.685245
 O         2.674938        -1.565112         1.608883
 C         1.884657        -1.418605         0.485278
 H         3.420773         1.180857         0.701401
 H         3.349628         0.886673        -1.185339
 H         2.090620         2.048448        -0.174932
 H        -0.235833         0.507424        -1.102439
 H         0.924034        -0.910138        -1.800006
 H        -0.409149        -1.908612         0.605146
 H        -0.026079         0.877272         0.979898
 H         2.319890        -1.284871         3.601395
 H         0.921142        -2.191948         2.646627
 H         2.252778        -2.043075        -0.360261
