19
Iteration:  3218charge 0 multiplicity 1
 C         2.682773         1.201615        -0.231902
 C         1.678856         0.182129         0.095677
 C         0.597561        -0.364560        -0.849941
 C         0.449369        -1.298994         0.364665
 C         0.656214         0.003387         1.201046
 O         1.169119        -0.020920         2.582055
 C         1.663290        -1.270105         2.725533
 O         2.503503        -1.719271         1.647382
 C         1.984940        -1.360666         0.370423
 H         3.496528         1.309892         0.488678
 H         3.300104         1.024147        -1.217628
 H         2.463985         2.315571        -0.438448
 H        -0.198281         0.444133        -1.036290
 H         1.205316        -0.759152        -1.725594
 H        -0.404024        -2.012076         0.445917
 H        -0.198067         0.660883         1.185202
 H         2.210464        -1.320075         3.682034
 H         0.830663        -2.060827         2.887886
 H         2.409595        -1.860333        -0.549477
