19
Iteration:  3446
 C         2.639216         1.193199        -0.116063
 C         1.742232         0.062281         0.023673
 C         0.625412        -0.369567        -0.964113
 C         0.294405        -1.197366         0.397268
 C         0.618027         0.054093         1.206782
 O         1.190940        -0.024845         2.458545
 C         1.762955        -1.341583         2.722108
 O         2.625880        -1.670255         1.711680
 C         1.865430        -1.393213         0.403795
 H         3.086638         1.388960         0.837923
 H         3.409343         1.343006        -0.896537
 H         2.094173         2.145177        -0.345984
 H        -0.025216         0.478642        -1.124288
 H         0.928643        -0.866599        -1.934515
 H        -0.437608        -2.056719         0.622507
 H        -0.002599         1.009574         1.095501
 H         2.340291        -1.225401         3.652687
 H         1.008669        -2.030776         3.013850
 H         2.395080        -2.147033        -0.234536
