19
Iteration:  2272
 C         2.649634         1.211401        -0.088451
 C         1.711825         0.157522         0.050340
 C         0.661070        -0.409427        -0.898057
 C         0.414875        -1.274666         0.384541
 C         0.551652         0.080823         1.231749
 O         1.104062         0.001279         2.510034
 C         1.798467        -1.258385         2.710134
 O         2.541167        -1.778638         1.592630
 C         1.971008        -1.380750         0.423768
 H         3.075089         1.508810         0.894507
 H         3.418621         1.108457        -0.921134
 H         2.320919         2.146119        -0.567350
 H        -0.243401         0.322751        -1.158460
 H         0.935894        -0.960180        -1.807190
 H        -0.462059        -2.060436         0.371447
 H        -0.242830         0.860445         1.184106
 H         2.625576        -1.068373         3.484537
 H         1.195086        -2.097475         3.078506
 H         2.385666        -1.829692        -0.475019
