19
Iteration:  4327
 C         2.871358         1.017995        -0.163968
 C         1.705073         0.123623         0.038962
 C         0.621032        -0.410502        -0.902907
 C         0.446938        -1.313226         0.336769
 C         0.594610         0.010316         1.177747
 O         0.985490         0.001133         2.549581
 C         1.587753        -1.222802         2.774251
 O         2.604370        -1.503043         1.674004
 C         1.997992        -1.325965         0.376202
 H         3.520257         1.051339         0.715903
 H         3.388489         0.666764        -1.009438
 H         2.497455         2.027990        -0.333199
 H        -0.114380         0.279162        -1.114561
 H         0.959357        -0.995558        -1.805474
 H        -0.294228        -2.012594         0.665517
 H        -0.221399         0.778440         1.047743
 H         2.053116        -1.174141         3.730183
 H         0.913511        -2.085743         2.779567
 H         2.396159        -2.033330        -0.402953
