19
Iteration:  4625
 C         2.636686         1.271581        -0.166207
 C         1.755255         0.095142         0.009103
 C         0.723256        -0.446173        -1.044767
 C         0.403969        -1.259976         0.398414
 C         0.687285         0.111129         1.160665
 O         1.162192         0.054992         2.486607
 C         1.653513        -1.275888         2.779468
 O         2.511669        -1.695463         1.770985
 C         1.913595        -1.518473         0.431418
 H         3.005740         1.581335         0.778752
 H         3.386779         1.192597        -0.931161
 H         1.857960         2.014178        -0.263907
 H        -0.028424         0.354747        -1.363411
 H         1.118720        -1.043324        -1.827181
 H        -0.327986        -2.147550         0.650570
 H        -0.152596         0.869533         1.019133
 H         2.354764        -1.056433         3.680031
 H         0.784076        -2.024051         2.968547
 H         2.375973        -2.205906        -0.156137
