19
Iteration:  4475
 C         2.674866         1.161609        -0.165555
 C         1.734735         0.118770         0.060312
 C         0.656852        -0.409425        -0.928462
 C         0.428048        -1.276491         0.322225
 C         0.664912         0.040627         1.146976
 O         1.048720         0.025747         2.445749
 C         1.654889        -1.236421         2.797193
 O         2.548439        -1.707176         1.767133
 C         2.008631        -1.374584         0.464567
 H         3.239553         1.541452         0.713450
 H         3.385593         0.847727        -1.020610
 H         2.084021         1.941865        -0.705033
 H        -0.031611         0.428228        -1.270133
 H         0.929974        -0.924392        -1.856862
 H        -0.285897        -2.058081         0.603160
 H         0.009442         0.877097         0.933938
 H         2.298364        -1.058350         3.710594
 H         0.821722        -1.949964         2.976610
 H         2.553023        -2.017276        -0.359254
