19
Iteration:  4642
 C         2.683936         1.191782        -0.173838
 C         1.748999         0.040446         0.015067
 C         0.698371        -0.432495        -0.892284
 C         0.422988        -1.259715         0.416278
 C         0.585664         0.045605         1.150690
 O         1.088388         0.058452         2.522379
 C         1.640597        -1.221097         2.728959
 O         2.563291        -1.664295         1.687383
 C         1.992621        -1.428874         0.468366
 H         3.190561         1.532605         0.791566
 H         3.555478         0.965299        -0.863886
 H         2.265408         2.086464        -0.725540
 H        -0.074574         0.266751        -1.162521
 H         1.028372        -1.034627        -1.819970
 H        -0.407328        -1.908930         0.564348
 H        -0.174854         0.860772         1.062652
 H         2.194248        -1.294766         3.618330
 H         0.743118        -1.897648         2.559913
 H         2.411263        -2.093664        -0.439952
