19
Iteration:  2255
 C         2.741780         1.417883        -0.061677
 C         1.696028         0.143059         0.055423
 C         0.558495        -0.480633        -0.996245
 C         0.312584        -1.208430         0.369723
 C         0.648589         0.037423         1.101306
 O         1.134590        -0.083323         2.498234
 C         1.874962        -1.251304         2.786540
 O         2.543273        -1.771324         1.650149
 C         1.863274        -1.437447         0.402898
 H         3.293395         1.588999         0.890075
 H         3.493995         1.465455        -0.882718
 H         2.167550         2.372092        -0.262956
 H        -0.144448         0.185244        -1.384921
 H         1.066514        -1.180440        -1.680470
 H        -0.367639        -1.928703         0.622660
 H        -0.129650         0.778311         1.274556
 H         2.459231        -1.089685         3.668286
 H         1.106150        -1.939198         3.248546
 H         2.294037        -2.215345        -0.275242
