19
Iteration:  1869
 C         2.739984         1.327867        -0.107595
 C         1.836116         0.137460         0.006609
 C         0.499867        -0.500015        -0.908910
 C         0.361823        -1.164481         0.402821
 C         0.596362         0.138882         1.156294
 O         1.047105        -0.092798         2.538987
 C         1.826963        -1.320583         2.755770
 O         2.582306        -1.711084         1.589842
 C         1.940529        -1.429963         0.405485
 H         3.085954         1.490192         1.000589
 H         3.560314         1.238216        -0.933646
 H         2.015848         2.118874        -0.284083
 H        -0.376028         0.149252        -1.257379
 H         0.752189        -1.171538        -1.738434
 H        -0.418418        -1.870914         0.836166
 H        -0.017783         1.093095         1.073506
 H         2.615359        -1.100103         3.503180
 H         1.201483        -2.171934         3.058751
 H         2.327002        -2.170232        -0.356108
