19
Iteration:  2758charge 0 multiplicity 1
 C         2.680027         1.272684        -0.052930
 C         1.670276         0.210659         0.035963
 C         0.543030        -0.413064        -0.939546
 C         0.472168        -1.280035         0.340721
 C         0.629300         0.062763         1.138796
 O         1.189624         0.083187         2.447407
 C         1.794776        -1.352262         2.763657
 O         2.475799        -1.828068         1.679412
 C         1.960220        -1.384033         0.448374
 H         3.426449         1.054491         0.725592
 H         3.062464         1.143635        -1.089962
 H         2.148167         2.244541         0.123808
 H        -0.256573         0.233389        -1.133608
 H         0.982726        -0.909345        -1.833632
 H        -0.218745        -2.080426         0.373393
 H        -0.298504         0.791696         1.128223
 H         2.414546        -1.207379         3.644421
 H         0.956174        -1.963517         3.022991
 H         2.575401        -1.775343        -0.319449
