19
Iteration:  4306charge 0 multiplicity 1
 C         2.873110         1.272652        -0.155946
 C         1.737064         0.160067         0.028446
 C         0.521116        -0.464143        -0.919386
 C         0.413683        -1.316624         0.325685
 C         0.614818         0.071929         1.103094
 O         1.039271         0.080410         2.487611
 C         1.637867        -1.236032         2.700140
 O         2.577200        -1.735634         1.780424
 C         1.986998        -1.468510         0.501763
 H         3.468893         1.256472         0.796987
 H         3.543857         1.110630        -0.967723
 H         2.449579         2.293793        -0.323423
 H        -0.322206         0.181265        -1.030460
 H         0.764722        -1.001107        -1.884128
 H        -0.220725        -2.192472         0.436925
 H        -0.241787         0.793877         1.025433
 H         2.203894        -1.251523         3.584337
 H         0.851717        -1.940197         2.858827
 H         2.655812        -1.981822        -0.294397
