19
Iteration:  2044
 C         2.716039         1.283981        -0.139680
 C         1.702392         0.087726         0.007488
 C         0.596727        -0.365796        -0.875360
 C         0.338628        -1.224146         0.369568
 C         0.646035         0.038751         1.245488
 O         1.155976        -0.086029         2.509730
 C         1.783092        -1.269136         2.766676
 O         2.576997        -1.672056         1.647839
 C         1.921419        -1.442431         0.332889
 H         3.248226         1.290273         0.812248
 H         3.352049         1.226855        -1.039859
 H         2.054080         2.093013        -0.191631
 H        -0.226579         0.290197        -1.099520
 H         0.876360        -0.907898        -1.704130
 H        -0.503241        -1.899473         0.589465
 H        -0.088948         0.809117         1.126420
 H         2.418669        -1.085412         3.562099
 H         0.954584        -1.957175         2.928287
 H         2.176430        -2.025661        -0.496460
