19
Iteration:  4048charge 0 multiplicity 1
 C         2.766373         1.185711        -0.196250
 C         1.744580         0.076769         0.094920
 C         0.599049        -0.377733        -0.875611
 C         0.398865        -1.293224         0.304309
 C         0.578701         0.068358         1.135461
 O         1.105869         0.007812         2.472812
 C         1.719997        -1.340091         2.765331
 O         2.541835        -1.585201         1.722332
 C         1.958897        -1.408438         0.456085
 H         3.211307         1.724188         0.675172
 H         3.538923         0.814698        -0.893310
 H         2.193020         1.894804        -0.749955
 H        -0.192864         0.509251        -0.933091
 H         0.958411        -0.722041        -1.788577
 H        -0.207543        -2.159489         0.271331
 H        -0.241295         0.768476         1.127461
 H         2.129650        -1.333565         3.757816
 H         0.950729        -2.166113         2.898639
 H         2.534453        -2.010027        -0.203043
