19
Iteration:  2327charge 0 multiplicity 1
 C         2.760391         1.150753        -0.226682
 C         1.715928         0.124703         0.025614
 C         0.504036        -0.427113        -0.898934
 C         0.415573        -1.175740         0.478438
 C         0.662020         0.082808         1.224774
 O         0.965208        -0.150474         2.581432
 C         1.690877        -1.419187         2.661186
 O         2.683195        -1.512223         1.633086
 C         1.973878        -1.291691         0.356115
 H         3.470219         1.376837         0.594517
 H         3.662024         0.828868        -0.843840
 H         2.551010         2.145821        -0.621786
 H        -0.337076         0.341282        -1.176754
 H         0.899806        -1.015318        -1.722781
 H        -0.287508        -1.974123         0.950842
 H        -0.028162         0.907916         1.385585
 H         2.141312        -1.290552         3.699561
 H         0.964775        -2.228270         2.719642
 H         2.348738        -2.005178        -0.370602
