19
Iteration:  2205charge 0 multiplicity 1
 C         2.739964         1.239625        -0.134525
 C         1.668787         0.113259         0.136485
 C         0.603879        -0.369863        -0.810334
 C         0.388683        -1.359008         0.340671
 C         0.562792         0.016191         1.199730
 O         1.164794         0.060090         2.516982
 C         1.683026        -1.292803         2.655831
 O         2.595814        -1.663561         1.596729
 C         1.979580        -1.411632         0.397072
 H         3.561381         1.172025         0.555550
 H         3.158197         1.023803        -1.138949
 H         2.461361         2.301591        -0.280208
 H        -0.333191         0.267202        -0.821022
 H         0.930502        -0.759011        -1.810935
 H        -0.445870        -2.129357         0.447005
 H        -0.265594         0.696042         1.250086
 H         2.185830        -1.301409         3.604714
 H         0.842863        -1.940150         2.756490
 H         2.652437        -1.887493        -0.307452
