19
Iteration:   214
 C         2.808389         1.213530        -0.145016
 C         1.753281         0.105078         0.222750
 C         0.689522        -0.291217        -0.871070
 C         0.346864        -1.262643         0.289620
 C         0.440491        -0.062227         1.201089
 O         0.916527        -0.219835         2.554972
 C         2.168989        -0.754326         2.630569
 O         2.343902        -1.910835         1.673773
 C         1.904603        -1.482184         0.423381
 H         3.689179         1.161662         0.469233
 H         3.140030         0.893314        -1.204645
 H         2.514930         2.246054        -0.313953
 H        -0.070627         0.504276        -1.177585
 H         0.905744        -0.779185        -1.803029
 H        -0.583269        -1.976279         0.302619
 H        -0.370752         0.626501         1.106834
 H         3.001166        -0.017578         2.272150
 H         2.260654        -1.213473         3.585754
 H         2.415969        -1.952053        -0.407612
