19
Iteration:   860charge 0 multiplicity 1
 C         2.772550         1.119708        -0.170682
 C         1.608757         0.128200         0.078353
 C         0.489044        -0.378576        -0.845724
 C         0.379294        -1.338626         0.392583
 C         0.562496         0.005169         1.230241
 O         1.154738         0.058701         2.516043
 C         1.702019        -1.203996         2.701184
 O         2.673302        -1.662425         1.640965
 C         2.008602        -1.382682         0.364405
 H         3.378436         1.119555         0.828389
 H         3.470483         0.767296        -0.913772
 H         2.583038         2.164500        -0.560649
 H        -0.491331         0.092611        -0.928174
 H         0.791463        -0.903335        -1.804885
 H        -0.530455        -1.946073         0.412238
 H        -0.199891         0.860011         1.217506
 H         2.325782        -1.219132         3.711147
 H         0.890687        -1.958144         2.534197
 H         2.697987        -1.690055        -0.516036
