19
Iteration:  1386charge 0 multiplicity 1
 C         2.599907         1.208623        -0.125606
 C         1.766968        -0.005075         0.075796
 C         0.649490        -0.440295        -0.870048
 C         0.269804        -1.181934         0.370585
 C         0.675505         0.049252         1.149710
 O         1.133150        -0.061758         2.480999
 C         1.821562        -1.273214         2.748502
 O         2.613135        -1.536555         1.638690
 C         1.873661        -1.470373         0.398119
 H         3.473996         1.214039         0.499522
 H         2.874589         1.447463        -1.158699
 H         1.995796         2.125188         0.255640
 H        -0.175030         0.249117        -1.021650
 H         0.944636        -0.825380        -1.895329
 H        -0.432044        -1.953886         0.489193
 H        -0.046927         0.877688         1.243692
 H         2.559653        -1.133389         3.527145
 H         0.944795        -1.962032         2.989745
 H         2.476106        -2.096135        -0.317555
