19
Iteration:  2300
 C         2.777633         1.154128        -0.172994
 C         1.661957         0.125450         0.097923
 C         0.494215        -0.291923        -0.892865
 C         0.431428        -1.325486         0.304783
 C         0.574481        -0.013848         1.236252
 O         1.143291        -0.048358         2.552772
 C         1.672379        -1.306516         2.732771
 O         2.644072        -1.565025         1.657797
 C         1.970402        -1.379177         0.373978
 H         3.369692         1.581103         0.603494
 H         3.585746         0.816328        -0.796824
 H         2.479486         2.020252        -0.807579
 H        -0.326790         0.311183        -0.901983
 H         0.731124        -0.737582        -1.889484
 H        -0.308138        -2.091231         0.257133
 H        -0.225821         0.730895         1.390301
 H         2.171856        -1.228627         3.664804
 H         0.896622        -2.127408         2.881630
 H         2.476323        -1.994406        -0.431499
