19
Iteration:  3445
 C         2.642343         1.194223        -0.114969
 C         1.746694         0.065420         0.021798
 C         0.623018        -0.371485        -0.957916
 C         0.290232        -1.201869         0.389690
 C         0.616839         0.057302         1.205886
 O         1.194974        -0.026687         2.458458
 C         1.769424        -1.340106         2.718238
 O         2.620115        -1.677246         1.713881
 C         1.865854        -1.390924         0.407916
 H         3.113708         1.426859         0.816515
 H         3.390885         1.369978        -0.870668
 H         2.075819         2.154785        -0.335862
 H        -0.023273         0.477494        -1.160965
 H         0.916864        -0.867350        -1.961401
 H        -0.416811        -2.076050         0.671442
 H        -0.035509         1.022629         1.075820
 H         2.339625        -1.221015         3.661667
 H         0.981856        -2.017966         3.010051
 H         2.401573        -2.146540        -0.220086
