19
Iteration:  3279charge 0 multiplicity 1
 C         2.771214         1.360439        -0.104709
 C         1.732814         0.065669         0.046675
 C         0.582478        -0.465104        -0.904429
 C         0.402811        -1.246342         0.405912
 C         0.622906         0.085086         1.147002
 O         1.144169        -0.006295         2.566271
 C         1.760261        -1.297565         2.724354
 O         2.533058        -1.681518         1.621325
 C         1.877766        -1.463245         0.356442
 H         3.233535         1.503262         0.869824
 H         3.415810         1.193380        -0.905589
 H         2.121964         2.190063        -0.377583
 H        -0.097010         0.302544        -1.133918
 H         0.888585        -0.927391        -1.859320
 H        -0.363466        -2.002944         0.516361
 H        -0.227014         0.848035         1.162238
 H         2.465050        -1.232101         3.588951
 H         0.934839        -2.108741         2.935948
 H         2.227054        -2.213472        -0.359762
