19
Iteration:  3249
 C         2.613769         1.318829        -0.111363
 C         1.668057         0.055091         0.025189
 C         0.583541        -0.458754        -0.928212
 C         0.398875        -1.175015         0.396227
 C         0.670458         0.147667         1.041341
 O         1.250339        -0.041830         2.534506
 C         1.662400        -1.319483         2.740684
 O         2.579569        -1.800675         1.710517
 C         1.965776        -1.376810         0.428232
 H         3.311044         1.464610         0.691988
 H         3.255287         1.251822        -1.020727
 H         1.968912         2.283233        -0.131374
 H        -0.065974         0.376833        -1.058431
 H         0.998353        -0.873539        -1.905579
 H        -0.481461        -1.828413         0.585277
 H         0.001279         0.909817         1.277012
 H         2.230877        -1.297550         3.668969
 H         0.870571        -2.021421         2.742769
 H         2.319673        -2.075507        -0.381176
