19
Iteration:  1489
 C         2.721297         1.206585        -0.197715
 C         1.736869         0.092590         0.066338
 C         0.565442        -0.454746        -0.848274
 C         0.383296        -1.217881         0.445683
 C         0.647764         0.114377         1.223366
 O         1.004248        -0.109659         2.523308
 C         1.810223        -1.342806         2.689165
 O         2.660779        -1.590871         1.607044
 C         1.896617        -1.355166         0.339226
 H         3.050229         1.760096         0.731420
 H         3.710705         1.020559        -0.712492
 H         2.077990         1.830280        -0.745717
 H        -0.062418         0.409980        -1.105895
 H         0.814593        -1.068026        -1.648120
 H        -0.493114        -1.762428         0.826741
 H        -0.160894         0.889794         1.215731
 H         2.405609        -1.126314         3.621296
 H         1.021597        -2.132303         2.998042
 H         2.294549        -2.114964        -0.389803
