19
Iteration:  4341charge 0 multiplicity 1
 C         2.833939         0.971445        -0.210285
 C         1.698255         0.061998         0.070872
 C         0.688581        -0.388560        -0.940798
 C         0.389901        -1.248530         0.411955
 C         0.576324         0.118338         1.160204
 O         0.932560        -0.068459         2.507146
 C         1.744246        -1.324764         2.698456
 O         2.570604        -1.403149         1.709326
 C         1.928048        -1.349881         0.497909
 H         3.492886         0.947813         0.708406
 H         3.460455         0.456927        -1.043461
 H         2.616539         2.080354        -0.291653
 H        -0.173902         0.334768        -1.258488
 H         1.135477        -0.874650        -1.800274
 H        -0.264921        -2.152698         0.335352
 H        -0.230648         0.826076         1.085132
 H         2.364903        -1.182305         3.582113
 H         0.956632        -2.058990         2.662141
 H         2.705504        -1.886543        -0.203851
