19
Iteration:   986charge 0 multiplicity 1
 C         2.728548         1.155415        -0.115349
 C         1.635774         0.154146         0.055246
 C         0.513311        -0.458434        -0.847377
 C         0.414244        -1.268960         0.499150
 C         0.659924         0.066065         1.153755
 O         1.118102        -0.049040         2.470827
 C         1.710559        -1.279378         2.693937
 O         2.597378        -1.564432         1.615710
 C         1.983452        -1.380774         0.356832
 H         3.559592         1.086414         0.545879
 H         3.123198         1.001359        -1.166570
 H         2.548170         2.227350        -0.063962
 H        -0.369410         0.255881        -0.968868
 H         0.717850        -1.068347        -1.765666
 H        -0.382511        -2.079824         0.760286
 H         0.088993         0.959777         1.207779
 H         2.335652        -1.312980         3.573118
 H         1.079291        -2.138611         2.783157
 H         2.535792        -1.952404        -0.352758
