19
Iteration:  3763
 C         2.623691         1.275675        -0.163005
 C         1.642462         0.192158         0.074873
 C         0.650678        -0.414633        -0.945533
 C         0.429645        -1.312991         0.347658
 C         0.623979         0.047269         1.172492
 O         1.235942         0.097448         2.448038
 C         1.740762        -1.287554         2.746548
 O         2.499969        -1.821866         1.772516
 C         1.957876        -1.430083         0.422379
 H         3.451111         1.220676         0.601109
 H         3.132191         1.339760        -1.127826
 H         2.203979         2.283437         0.201123
 H        -0.183443         0.270116        -1.270367
 H         1.032898        -0.817578        -1.865802
 H        -0.260386        -2.175422         0.315564
 H        -0.275514         0.772456         1.059814
 H         2.456803        -1.237742         3.593375
 H         0.752037        -1.865485         2.981687
 H         2.325209        -2.024761        -0.386019
