19
Iteration:  3996
 C         2.920426         1.137902        -0.165716
 C         1.713435         0.124575         0.093976
 C         0.570567        -0.470554        -0.892548
 C         0.356365        -1.252848         0.448120
 C         0.583611         0.058065         1.173880
 O         0.903746        -0.136172         2.488155
 C         1.740791        -1.225608         2.718463
 O         2.643643        -1.530290         1.614743
 C         1.953830        -1.302065         0.398192
 H         3.562429         1.115558         0.712130
 H         3.494720         0.752722        -1.049852
 H         2.591553         2.147271        -0.270036
 H        -0.256321         0.160991        -1.157432
 H         0.933472        -1.057060        -1.717990
 H        -0.458442        -1.968486         0.582339
 H        -0.124317         0.899459         1.288254
 H         2.218545        -1.008421         3.674688
 H         1.190081        -2.189385         2.790216
 H         2.450734        -2.002706        -0.299520
