19
Iteration:  2685charge 0 multiplicity 1
 C         2.827691         1.173297        -0.266139
 C         1.705882         0.247163         0.034629
 C         0.580472        -0.381163        -0.833469
 C         0.410139        -1.268868         0.450149
 C         0.567235         0.085864         1.245984
 O         1.021625        -0.085087         2.540419
 C         1.709144        -1.415019         2.631100
 O         2.622434        -1.621324         1.666817
 C         2.014354        -1.289120         0.428252
 H         3.219072         1.428239         0.651543
 H         3.496981         0.478737        -0.839053
 H         2.425255         2.018981        -0.789753
 H        -0.384258         0.275364        -0.885507
 H         0.789681        -0.875854        -1.776244
 H        -0.346743        -2.067809         0.633276
 H        -0.226804         0.764151         1.112858
 H         2.163335        -1.454253         3.592792
 H         0.821900        -2.136455         2.579312
 H         2.396813        -1.932349        -0.383327
