19
Iteration:  3556charge 0 multiplicity 1
 C         2.710234         1.306052        -0.178418
 C         1.709156         0.137016        -0.002623
 C         0.578318        -0.401649        -0.895254
 C         0.396009        -1.233752         0.410411
 C         0.688429         0.140753         1.107433
 O         1.106417        -0.021063         2.510370
 C         1.708441        -1.339908         2.792576
 O         2.592782        -1.779638         1.697303
 C         1.939767        -1.413521         0.423568
 H         3.527454         1.316433         0.535627
 H         2.990154         1.167735        -1.251342
 H         2.062338         2.141994        -0.018357
 H        -0.203194         0.302751        -1.260479
 H         0.840244        -1.036176        -1.787439
 H        -0.316850        -2.036612         0.632215
 H        -0.063638         0.993703         1.180825
 H         2.294179        -1.198934         3.701967
 H         0.873082        -2.168734         2.942674
 H         2.483882        -1.997157        -0.395711
