19
Iteration:  4007
 C         2.911849         1.103705        -0.180816
 C         1.778763         0.189621         0.025722
 C         0.601940        -0.462271        -0.893530
 C         0.385073        -1.278751         0.383553
 C         0.473317         0.133119         1.196026
 O         0.866875        -0.082422         2.581306
 C         1.767752        -1.346023         2.698174
 O         2.705752        -1.548887         1.626475
 C         1.901915        -1.322607         0.453848
 H         3.483949         1.183501         0.732058
 H         3.652862         0.818256        -0.993556
 H         2.543193         2.053115        -0.517079
 H        -0.230591         0.156911        -1.162967
 H         0.802410        -1.126982        -1.715939
 H        -0.340986        -2.079484         0.636364
 H        -0.322869         0.898095         0.970030
 H         2.515562        -1.053790         3.459943
 H         1.052382        -2.091256         3.041464
 H         2.265396        -1.838729        -0.473357
