19
Iteration:   478
 C         2.781702         1.116150         0.008894
 C         1.673924         0.114907        -0.005164
 C         0.469400        -0.471457        -0.899144
 C         0.369947        -1.298942         0.365975
 C         0.546408         0.015015         1.277170
 O         1.184427         0.112930         2.515142
 C         1.763230        -1.195879         2.646626
 O         2.638079        -1.627462         1.584124
 C         1.957245        -1.397315         0.383361
 H         3.277827         1.231264         0.993112
 H         3.574439         0.914497        -0.783515
 H         2.403312         2.060372        -0.369981
 H        -0.453878         0.144403        -1.044045
 H         0.755321        -1.054024        -1.789063
 H        -0.538073        -2.075420         0.509048
 H        -0.332582         0.660617         1.152826
 H         2.504935        -1.207824         3.502973
 H         0.962901        -1.912941         2.815231
 H         2.383979        -2.094480        -0.416076
