19
Iteration:  4443
 C         2.659848         1.370639        -0.118470
 C         1.709126         0.158092        -0.053340
 C         0.700290        -0.546089        -0.951855
 C         0.419203        -1.294840         0.402160
 C         0.726764         0.072999         1.167834
 O         1.160061         0.099293         2.436381
 C         1.609224        -1.283410         2.718104
 O         2.515570        -1.721925         1.770119
 C         1.912222        -1.517896         0.466764
 H         3.149422         1.615276         0.875826
 H         3.476417         1.168018        -0.960720
 H         2.050702         2.302830        -0.370703
 H         0.001846         0.183043        -1.497807
 H         1.257452        -1.291662        -1.625496
 H        -0.395892        -1.906188         0.748674
 H         0.079415         0.958029         1.066401
 H         2.003863        -1.373987         3.740003
 H         0.715324        -1.929385         2.877258
 H         2.447862        -2.261325        -0.239115
