19
Iteration:  4878charge 0 multiplicity 1
 C         2.913076         1.090190        -0.175353
 C         1.708343         0.051468        -0.015700
 C         0.566133        -0.455276        -0.903676
 C         0.341960        -1.205899         0.393510
 C         0.588284         0.041598         1.250229
 O         0.922556         0.011741         2.573226
 C         1.739328        -1.271161         2.694096
 O         2.615915        -1.536623         1.647200
 C         2.016943        -1.376960         0.396235
 H         3.088413         1.393152         0.884954
 H         3.768139         0.665933        -0.727355
 H         2.454214         1.976016        -0.671594
 H        -0.248073         0.267827        -1.210205
 H         0.992678        -0.930027        -1.727414
 H        -0.426535        -2.043366         0.565572
 H        -0.161310         0.822855         1.117225
 H         2.212506        -1.185823         3.697907
 H         1.053694        -1.998580         2.556764
 H         2.592708        -2.035714        -0.189643
