19
Iteration:   937
 C         2.615520         1.192184        -0.286467
 C         1.684479         0.158612         0.082409
 C         0.613552        -0.375025        -0.815084
 C         0.389465        -1.285081         0.385508
 C         0.703159         0.110234         1.152825
 O         1.152363        -0.074197         2.481570
 C         1.760957        -1.300968         2.741917
 O         2.528610        -1.673525         1.679960
 C         1.941143        -1.376962         0.449276
 H         3.237970         1.535945         0.601724
 H         3.265199         1.031533        -1.118348
 H         2.084365         2.156068        -0.515616
 H        -0.156003         0.341372        -1.023962
 H         1.122633        -0.738829        -1.711271
 H        -0.339999        -2.033358         0.536971
 H        -0.239595         0.722257         1.260469
 H         2.508192        -1.187688         3.568558
 H         1.187569        -2.154680         3.011843
 H         2.369734        -2.170640        -0.225838
