19
Iteration:  2504
 C         2.775779         1.135047        -0.352807
 C         1.624998         0.183398         0.018072
 C         0.588359        -0.275494        -0.920019
 C         0.336325        -1.208348         0.358419
 C         0.604917         0.051197         1.214119
 O         1.053757        -0.185871         2.600904
 C         1.752044        -1.399133         2.745057
 O         2.668659        -1.545583         1.734268
 C         1.941218        -1.338631         0.439156
 H         3.130413         1.438320         0.722785
 H         3.481005         0.563127        -0.911725
 H         2.487634         2.001195        -0.948469
 H        -0.070182         0.556847        -1.166907
 H         1.019918        -0.871011        -1.776388
 H        -0.421589        -1.988976         0.411197
 H        -0.132112         0.806501         1.403192
 H         2.288980        -1.328893         3.673792
 H         1.058726        -2.296351         2.904145
 H         2.547955        -1.935407        -0.200201
