19
Iteration:  1868charge 0 multiplicity 1
 C         2.741971         1.318001        -0.111110
 C         1.819119         0.132499         0.005959
 C         0.499319        -0.495766        -0.907176
 C         0.375811        -1.161015         0.399684
 C         0.600230         0.149822         1.156199
 O         1.044287        -0.096787         2.542235
 C         1.823374        -1.321936         2.751719
 O         2.587588        -1.706343         1.594718
 C         1.938523        -1.424222         0.398492
 H         3.073587         1.466118         0.977792
 H         3.565103         1.218854        -0.911496
 H         1.992652         2.101778        -0.277749
 H        -0.352511         0.143154        -1.244172
 H         0.761851        -1.192893        -1.690365
 H        -0.435262        -1.890610         0.809083
 H        -0.007273         1.103420         1.095549
 H         2.631191        -1.085856         3.517263
 H         1.192208        -2.209085         3.036079
 H         2.324551        -2.159809        -0.339303
