19
Iteration:  2002
 C         2.784739         1.076733        -0.318863
 C         1.662338         0.245563         0.088115
 C         0.542152        -0.279872        -0.883625
 C         0.409961        -1.265834         0.367460
 C         0.541721         0.001742         1.297203
 O         1.048837        -0.117914         2.584772
 C         1.748062        -1.348038         2.791678
 O         2.625360        -1.609233         1.635730
 C         1.963421        -1.287577         0.348960
 H         3.618017         1.218122         0.433055
 H         3.419887         0.601261        -1.087061
 H         2.487186         2.103556        -0.575010
 H        -0.257267         0.397373        -1.154765
 H         1.043539        -0.673585        -1.738025
 H        -0.191566        -2.146935         0.388848
 H        -0.321816         0.699882         1.315860
 H         2.402946        -1.122678         3.575530
 H         1.068025        -2.252051         2.946651
 H         2.544536        -1.884579        -0.424784
