19
Iteration:   206charge 0 multiplicity 1
 C         2.795705         1.133014        -0.142179
 C         1.732890         0.067638         0.235820
 C         0.728994        -0.236077        -0.879041
 C         0.338122        -1.280906         0.310909
 C         0.402364        -0.072936         1.194272
 O         0.890689        -0.207945         2.509006
 C         2.230033        -0.746820         2.578001
 O         2.364680        -1.879757         1.686098
 C         1.851081        -1.477187         0.437861
 H         3.581777         1.202089         0.622192
 H         3.325877         0.942405        -1.145769
 H         2.335447         2.121094        -0.066238
 H         0.116972         0.682941        -0.916532
 H         1.006093        -0.707928        -1.801614
 H        -0.404026        -1.979613         0.260526
 H        -0.439800         0.588838         1.215791
 H         2.973845        -0.055598         2.173044
 H         2.477200        -1.079758         3.651537
 H         2.402607        -1.958517        -0.442315
