19
Iteration:  4973charge 0 multiplicity 1
 C         2.750841         1.278995        -0.212036
 C         1.783459         0.117045         0.059797
 C         0.628622        -0.429487        -0.945969
 C         0.352750        -1.207143         0.421641
 C         0.619199         0.113502         1.072187
 O         1.092332         0.005598         2.441814
 C         1.635793        -1.288372         2.865981
 O         2.596566        -1.760019         1.731480
 C         1.999518        -1.451531         0.453031
 H         3.478185         1.309117         0.563408
 H         3.109029         1.234672        -1.237327
 H         2.082875         2.126752        -0.037338
 H        -0.175195         0.261785        -1.331657
 H         0.955063        -1.065929        -1.915714
 H        -0.500316        -1.844666         0.673931
 H        -0.209397         0.854059         1.005755
 H         2.321538        -1.265415         3.767103
 H         0.761610        -1.949267         3.032190
 H         2.353169        -2.172119        -0.373173
