19
Iteration:  2026charge 0 multiplicity 1
 C         2.754245         1.198078        -0.217356
 C         1.716758         0.215162         0.111060
 C         0.482151        -0.368855        -0.881093
 C         0.438869        -1.270690         0.421237
 C         0.595718         0.090294         1.156001
 O         1.021973        -0.065362         2.568746
 C         1.814089        -1.300538         2.721527
 O         2.565561        -1.758729         1.594482
 C         1.966496        -1.321657         0.427900
 H         3.597367         1.328749         0.540699
 H         3.419878         0.773562        -0.990061
 H         2.424591         2.293527        -0.400927
 H        -0.348554         0.343292        -1.020633
 H         0.796717        -0.901568        -1.859113
 H        -0.154695        -2.143506         0.548965
 H        -0.273184         0.805953         1.107370
 H         2.589125        -1.135717         3.534725
 H         1.151904        -2.200502         2.954645
 H         2.604511        -1.865206        -0.402367
