19
Iteration:  2673
 C         2.843416         1.113953        -0.233146
 C         1.629483         0.189447         0.202627
 C         0.532735        -0.347081        -0.864626
 C         0.508998        -1.247747         0.410601
 C         0.538343         0.041592         1.236124
 O         1.038668        -0.077934         2.554216
 C         1.649018        -1.326402         2.636911
 O         2.663112        -1.561814         1.619705
 C         1.942733        -1.372393         0.391642
 H         3.534725         1.502030         0.417279
 H         3.547513         0.533541        -0.933402
 H         2.690120         1.959643        -0.932865
 H        -0.383813         0.324434        -1.064938
 H         0.964869        -0.682967        -1.833079
 H        -0.117305        -2.121563         0.554212
 H        -0.316598         0.683419         1.357924
 H         2.174298        -1.354417         3.583733
 H         0.921212        -2.219845         2.553061
 H         2.452011        -1.982720        -0.345227
