19
Iteration:  4790charge 0 multiplicity 1
 C         2.631696         1.257568        -0.145242
 C         1.781702         0.072601        -0.047121
 C         0.646690        -0.492299        -0.980992
 C         0.408602        -1.212028         0.309945
 C         0.617621         0.092068         1.130208
 O         1.192743         0.041324         2.459900
 C         1.630417        -1.288266         2.854633
 O         2.553132        -1.704504         1.760195
 C         1.955478        -1.435998         0.517284
 H         3.453086         1.362826         0.577330
 H         3.147784         1.220954        -1.138951
 H         2.097989         2.243536        -0.146449
 H        -0.025184         0.456177        -1.206003
 H         0.831067        -1.043336        -1.904976
 H        -0.357890        -2.040440         0.466198
 H        -0.118897         0.917949         1.140661
 H         2.153526        -1.282163         3.880875
 H         0.787141        -2.063471         2.793018
 H         2.471015        -2.070698        -0.152761
