19
Iteration:  2549charge 0 multiplicity 1
 C         2.621701         1.236850        -0.164271
 C         1.748004         0.128803         0.015104
 C         0.558727        -0.398870        -0.863774
 C         0.433100        -1.266844         0.442789
 C         0.672634         0.089169         1.189905
 O         1.091977         0.038662         2.508440
 C         1.665556        -1.292183         2.714011
 O         2.603058        -1.801418         1.627628
 C         2.014696        -1.371512         0.370086
 H         3.372500         1.159807         0.749881
 H         3.209237         1.264031        -1.076847
 H         2.307007         2.300272        -0.034888
 H        -0.277582         0.262834        -1.037405
 H         1.105245        -0.843025        -1.791943
 H        -0.240984        -2.055391         0.699830
 H        -0.038010         0.963611         1.249030
 H         2.064937        -1.318326         3.762336
 H         0.787372        -2.016509         2.745684
 H         2.453926        -2.005498        -0.399104
