19
Iteration:   630charge 0 multiplicity 1
 C         2.766234         1.193950        -0.093131
 C         1.638391         0.098326         0.049118
 C         0.530593        -0.459829        -0.933732
 C         0.309869        -1.230952         0.392739
 C         0.615485         0.075361         1.213353
 O         1.172615        -0.031090         2.429401
 C         1.815097        -1.254446         2.790604
 O         2.640052        -1.584691         1.600648
 C         1.865152        -1.467626         0.466908
 H         3.610320         1.158720         0.609757
 H         3.224418         1.181248        -1.088532
 H         2.356894         2.178393         0.053470
 H        -0.220622         0.280759        -1.369455
 H         0.867852        -0.988011        -1.835051
 H        -0.474155        -2.092251         0.448046
 H        -0.240582         0.788833         1.116646
 H         2.583545        -0.881651         3.584491
 H         1.131799        -2.139872         3.185426
 H         2.105547        -2.074117        -0.324179
