19
Iteration:  1719
 C         2.790446         1.372505        -0.081919
 C         1.666293         0.245584         0.055173
 C         0.397422        -0.490629        -0.865565
 C         0.540846        -1.361247         0.298418
 C         0.660898        -0.038892         1.229231
 O         1.271650         0.049717         2.451759
 C         1.673277        -1.215770         2.722714
 O         2.498549        -1.770566         1.680028
 C         1.957381        -1.411302         0.357219
 H         3.295356         1.224723         0.916091
 H         3.451943         1.007305        -0.859133
 H         2.311216         2.322409        -0.368601
 H        -0.536523         0.184932        -0.833363
 H         0.392073        -0.907197        -1.895750
 H        -0.328697        -1.890146         0.566503
 H        -0.273261         0.600502         1.182322
 H         2.294074        -1.324420         3.572193
 H         0.720949        -1.883452         2.933222
 H         2.555325        -1.988219        -0.415070
