19
Iteration:  2639charge 0 multiplicity 1
 C         2.774617         1.159070        -0.123144
 C         1.694378         0.084983         0.000645
 C         0.528410        -0.336419        -0.975635
 C         0.395245        -1.189500         0.333576
 C         0.592258         0.084563         1.215154
 O         1.030728        -0.137607         2.550377
 C         1.826136        -1.301865         2.777960
 O         2.608520        -1.550233         1.649426
 C         1.932042        -1.440267         0.433816
 H         3.341997         1.200191         0.779844
 H         3.490990         0.811370        -0.925483
 H         2.397943         2.191567        -0.351012
 H        -0.242275         0.439535        -1.129950
 H         0.869299        -0.846851        -1.930192
 H        -0.311791        -1.965453         0.579666
 H        -0.179660         0.781299         1.014833
 H         2.487592        -1.109510         3.664280
 H         1.105539        -2.153814         2.997725
 H         2.327956        -2.052957        -0.350562
