19
Iteration:  1646
 C         2.779967         1.129348        -0.294798
 C         1.682259         0.175325        -0.000786
 C         0.517153        -0.350116        -0.869507
 C         0.430007        -1.179641         0.375428
 C         0.633412         0.082513         1.257545
 O         0.979350        -0.208655         2.560758
 C         1.824834        -1.289730         2.779539
 O         2.572615        -1.586349         1.642990
 C         1.978697        -1.316498         0.413383
 H         3.375712         1.070346         0.609377
 H         3.410011         0.707162        -1.072683
 H         2.483158         2.182810        -0.650335
 H        -0.402870         0.158664        -0.879084
 H         0.787564        -0.626547        -1.888556
 H        -0.249822        -2.130724         0.660828
 H        -0.208110         0.737606         1.149063
 H         2.530343        -1.111631         3.608222
 H         1.309912        -2.254402         3.039185
 H         2.406894        -2.008498        -0.270810
