19
Iteration:  3972charge 0 multiplicity 1
 C         2.736198         1.103804        -0.150381
 C         1.679310         0.045543         0.030100
 C         0.625671        -0.329986        -0.992166
 C         0.436219        -1.332524         0.308664
 C         0.591822         0.045726         1.165461
 O         1.060688         0.029222         2.559111
 C         1.719492        -1.309287         2.802093
 O         2.632292        -1.526378         1.704568
 C         1.929476        -1.384674         0.393090
 H         3.428669         0.905190         0.701926
 H         3.273386         1.014697        -1.104397
 H         2.303103         2.050445         0.079631
 H        -0.289492         0.348452        -1.082769
 H         0.810593        -0.818066        -1.864623
 H        -0.371385        -2.009522         0.320141
 H        -0.154161         0.824472         1.241936
 H         2.268415        -1.139634         3.685399
 H         0.977074        -2.196827         2.795298
 H         2.485136        -2.065708        -0.180051
