19
Iteration:  1330charge 0 multiplicity 1
 C         2.710690         1.134937        -0.192704
 C         1.607477         0.183886         0.087633
 C         0.490536        -0.365724        -0.942106
 C         0.386565        -1.341049         0.368321
 C         0.598461        -0.005573         1.240913
 O         1.186344        -0.046300         2.540877
 C         1.730811        -1.257044         2.733638
 O         2.619605        -1.554209         1.658497
 C         1.986904        -1.337429         0.392465
 H         3.332662         1.333481         0.703051
 H         3.325324         0.557380        -0.855300
 H         2.575311         2.141809        -0.731188
 H        -0.217559         0.412941        -1.127153
 H         0.975391        -0.883524        -1.818963
 H        -0.134485        -2.308545         0.469501
 H        -0.305650         0.585855         1.299196
 H         2.321199        -1.413194         3.603360
 H         0.924463        -2.103059         2.892031
 H         2.605083        -1.835373        -0.385887
