19
Iteration:  3798charge 0 multiplicity 1
 C         2.759489         1.193288        -0.157183
 C         1.737691         0.100606         0.073668
 C         0.575844        -0.402383        -0.905814
 C         0.403192        -1.283412         0.416976
 C         0.635616         0.015244         1.139098
 O         1.038327        -0.014982         2.489358
 C         1.771009        -1.268140         2.714903
 O         2.542186        -1.646265         1.697169
 C         1.954132        -1.336572         0.364464
 H         3.449651         1.077704         0.751481
 H         3.393145         1.174023        -1.112675
 H         2.283933         2.184530        -0.162185
 H        -0.251378         0.414503        -0.950687
 H         0.830950        -1.001670        -1.750099
 H        -0.415260        -1.993566         0.424766
 H        -0.233544         0.782878         1.120174
 H         2.529819        -1.018347         3.547140
 H         1.073027        -2.093424         3.134253
 H         2.440761        -2.153697        -0.248544
