19
Iteration:  2538
 C         2.670355         1.288017        -0.226063
 C         1.709643         0.092549         0.047493
 C         0.626593        -0.426834        -0.825213
 C         0.349634        -1.227401         0.441936
 C         0.739558         0.143314         1.197993
 O         1.047658        -0.055115         2.596738
 C         1.678807        -1.322265         2.642471
 O         2.581413        -1.683057         1.627684
 C         2.021377        -1.422856         0.394837
 H         3.347761         1.259243         0.742360
 H         3.393183         1.140395        -1.018441
 H         2.077714         2.251200        -0.243091
 H         0.006232         0.345157        -1.255750
 H         0.860839        -1.158261        -1.716466
 H        -0.444019        -1.918256         0.643959
 H        -0.053764         0.893838         0.970559
 H         2.378883        -1.325061         3.506184
 H         0.851272        -2.111834         2.604998
 H         2.400872        -2.044247        -0.408030
