19
Iteration:  3196
 C         2.825920         1.132868        -0.235167
 C         1.708981         0.157339         0.011149
 C         0.513598        -0.331050        -0.927010
 C         0.378314        -1.176739         0.378789
 C         0.607037         0.111109         1.221907
 O         0.985176        -0.127363         2.518753
 C         1.821375        -1.342184         2.711572
 O         2.631222        -1.696763         1.737446
 C         1.957683        -1.295889         0.426174
 H         3.514349         1.335876         0.580563
 H         3.463105         0.993898        -1.209805
 H         2.296968         2.160713        -0.419309
 H        -0.455181         0.252697        -0.857238
 H         0.711636        -0.987625        -1.833189
 H        -0.252802        -2.092474         0.468528
 H        -0.130853         0.878446         1.379966
 H         2.253071        -1.267589         3.722274
 H         0.977762        -2.156864         2.847152
 H         2.440215        -1.980717        -0.331794
