19
Iteration:  3165charge 0 multiplicity 1
 C         2.801853         1.032457        -0.138828
 C         1.750214         0.069515         0.082008
 C         0.646919        -0.325057        -0.934498
 C         0.335046        -1.209936         0.396529
 C         0.619282         0.056008         1.275189
 O         0.997486        -0.113514         2.626479
 C         1.810415        -1.316099         2.678019
 O         2.576812        -1.429423         1.597233
 C         1.887464        -1.415108         0.358946
 H         3.520195         1.395743         0.580407
 H         3.416950         0.852623        -1.092896
 H         2.303259         1.947912        -0.519068
 H        -0.279401         0.363469        -1.182431
 H         0.864424        -0.877365        -1.866046
 H        -0.396584        -2.049115         0.453801
 H        -0.108962         0.931892         1.152912
 H         2.417245        -1.302979         3.609542
 H         1.039267        -2.185422         2.627883
 H         2.253938        -2.070232        -0.449812
