19
Iteration:  3614charge 0 multiplicity 1
 C         2.670799         1.175960        -0.073500
 C         1.680533         0.085823        -0.004300
 C         0.599901        -0.400084        -0.951106
 C         0.352211        -1.255228         0.355381
 C         0.630449         0.083312         1.217951
 O         1.158787         0.049047         2.488804
 C         1.768833        -1.265397         2.688638
 O         2.565992        -1.709430         1.700253
 C         1.978868        -1.472425         0.447336
 H         3.413720         1.385869         0.780675
 H         3.278456         1.334047        -1.051380
 H         2.028380         2.038328        -0.250766
 H        -0.176206         0.433382        -1.083741
 H         0.927690        -0.916334        -1.818987
 H        -0.435531        -1.952388         0.571295
 H        -0.106695         0.841301         1.191781
 H         2.320428        -1.146122         3.666916
 H         0.882499        -2.009200         2.767876
 H         2.529905        -1.855219        -0.468804
