19
Iteration:  1916
 C         2.614113         1.212347        -0.080818
 C         1.598211         0.096617         0.113878
 C         0.608902        -0.335893        -0.998714
 C         0.411556        -1.317901         0.280310
 C         0.590863        -0.026818         1.220918
 O         1.316999         0.073594         2.508997
 C         1.797649        -1.216762         2.764568
 O         2.483555        -1.807093         1.661375
 C         1.962599        -1.336602         0.406857
 H         3.313336         1.291147         0.793888
 H         3.049574         0.875567        -1.029714
 H         2.054615         2.156518        -0.236279
 H        -0.129844         0.536963        -1.124603
 H         1.003620        -0.654466        -2.036956
 H        -0.315205        -2.029917         0.403810
 H        -0.342599         0.561278         1.287933
 H         2.425867        -1.195922         3.606009
 H         0.996200        -1.862968         3.011856
 H         2.568483        -1.829929        -0.391411
