19
Iteration:  2025charge 0 multiplicity 1
 C         2.755983         1.199116        -0.224422
 C         1.712559         0.217587         0.112453
 C         0.485692        -0.366574        -0.883133
 C         0.438762        -1.272472         0.415961
 C         0.593875         0.091336         1.157252
 O         1.019901        -0.072008         2.576616
 C         1.823072        -1.296251         2.720386
 O         2.559603        -1.757689         1.594207
 C         1.977601        -1.319834         0.438488
 H         3.593448         1.289330         0.560348
 H         3.402903         0.735954        -0.996317
 H         2.440584         2.279934        -0.424742
 H        -0.348747         0.320940        -1.005233
 H         0.762401        -0.892375        -1.828929
 H        -0.165231        -2.125204         0.540139
 H        -0.274203         0.787205         1.069202
 H         2.568733        -1.140248         3.508778
 H         1.131266        -2.181709         2.913901
 H         2.594986        -1.818704        -0.417094
