19
Iteration:  4307charge 0 multiplicity 1
 C         2.877408         1.268480        -0.154670
 C         1.738414         0.154447         0.034303
 C         0.516639        -0.465071        -0.922639
 C         0.410691        -1.311728         0.331066
 C         0.607977         0.071174         1.106019
 O         1.034188         0.079320         2.493512
 C         1.627889        -1.228387         2.709737
 O         2.587272        -1.727074         1.770014
 C         1.992416        -1.475146         0.497223
 H         3.490191         1.213238         0.797804
 H         3.574803         1.125211        -0.995032
 H         2.489155         2.302918        -0.372799
 H        -0.384371         0.186317        -1.053260
 H         0.775244        -0.979453        -1.881170
 H        -0.217199        -2.206234         0.383238
 H        -0.236518         0.774456         1.049928
 H         2.207976        -1.278104         3.581195
 H         0.840922        -1.943272         2.852340
 H         2.691908        -1.978396        -0.293765
