19
Iteration:  2149
 C         2.790098         1.164036        -0.267800
 C         1.772556         0.083132         0.091522
 C         0.624423        -0.267165        -0.845590
 C         0.347317        -1.208120         0.395120
 C         0.599891         0.044178         1.307798
 O         0.963546        -0.179370         2.545487
 C         1.776722        -1.323361         2.669577
 O         2.695856        -1.501114         1.625213
 C         1.822412        -1.427433         0.444004
 H         3.461504         1.690093         0.365910
 H         3.453860         0.871343        -1.130587
 H         2.077464         1.963744        -0.599340
 H        -0.184635         0.381564        -1.218428
 H         1.007624        -0.888226        -1.727029
 H        -0.317910        -2.084170         0.491753
 H        -0.129824         0.835912         1.153583
 H         2.356577        -1.330923         3.569176
 H         1.222166        -2.200694         2.716655
 H         2.136025        -2.116074        -0.386608
