19
Iteration:    80
 C         2.702085         1.219569        -0.304523
 C         1.735662         0.037222         0.053233
 C         0.533243        -0.521845        -0.830840
 C         0.330416        -1.173271         0.475451
 C         0.623375         0.175295         1.275972
 O         1.146613        -0.006645         2.528479
 C         1.631590        -1.375522         2.566256
 O         2.656569        -1.655010         1.708454
 C         2.083807        -1.317557         0.416559
 H         3.363518         1.532626         0.557437
 H         3.310281         1.002376        -1.161541
 H         2.014126         2.096622        -0.545850
 H        -0.078349         0.307174        -1.136376
 H         0.700021        -1.287891        -1.647969
 H        -0.412986        -2.094506         0.677997
 H        -0.103445         1.025127         1.279837
 H         1.896741        -1.550142         3.680054
 H         0.697701        -2.005128         2.477572
 H         2.524029        -1.947857        -0.299120
