19
Iteration:   867
 C         2.803723         1.154917        -0.179998
 C         1.578855         0.163733         0.070406
 C         0.532025        -0.353919        -0.827916
 C         0.351427        -1.347333         0.419136
 C         0.497268        -0.018804         1.196613
 O         1.192386         0.044851         2.489521
 C         1.708964        -1.198296         2.692920
 O         2.687895        -1.640361         1.667839
 C         1.987820        -1.427200         0.362686
 H         3.376289         1.376663         0.689305
 H         3.466726         0.629819        -0.944022
 H         2.541291         2.124195        -0.549965
 H        -0.320109         0.356502        -0.965212
 H         0.899202        -0.747369        -1.722696
 H        -0.527738        -1.960158         0.534144
 H        -0.394014         0.589822         1.268486
 H         2.214476        -1.459833         3.588995
 H         0.961867        -1.984841         2.638416
 H         2.615871        -2.052751        -0.366308
