19
Iteration:  3349
 C         2.789904         1.089028        -0.160750
 C         1.759217         0.075190         0.056916
 C         0.600688        -0.414961        -0.869524
 C         0.380688        -1.179783         0.407009
 C         0.635202         0.128748         1.231975
 O         0.948752        -0.094113         2.637229
 C         1.740743        -1.333036         2.680744
 O         2.616915        -1.506848         1.572692
 C         1.956611        -1.365272         0.306734
 H         3.499811         1.239828         0.667664
 H         3.428848         0.889791        -1.144993
 H         2.388421         2.106802        -0.479006
 H        -0.316769         0.256614        -1.015966
 H         0.682339        -0.983205        -1.811410
 H        -0.305192        -1.998839         0.743744
 H        -0.068941         0.914883         1.383692
 H         2.352554        -1.336533         3.614245
 H         1.034791        -2.276356         2.733363
 H         2.330150        -2.173944        -0.392363
