19
Iteration:   894charge 0 multiplicity 1
 C         2.668775         1.156119        -0.222935
 C         1.677479         0.092087         0.014468
 C         0.591597        -0.431881        -0.890568
 C         0.344110        -1.220312         0.390557
 C         0.667394         0.123420         1.200492
 O         1.119385        -0.083355         2.568128
 C         1.780804        -1.281464         2.765503
 O         2.587464        -1.625289         1.649549
 C         1.953146        -1.366223         0.383117
 H         3.082658         1.579058         0.755526
 H         3.484603         0.871739        -0.852723
 H         2.082836         2.038468        -0.642580
 H        -0.266612         0.204034        -1.131599
 H         0.950353        -1.019338        -1.815762
 H        -0.525952        -1.926218         0.507250
 H         0.048664         1.079344         1.216720
 H         2.460238        -1.309552         3.676689
 H         1.049998        -2.119505         2.993189
 H         2.560077        -1.905657        -0.382292
