19
Iteration:  4544
 C         2.843053         1.070023        -0.156581
 C         1.774862         0.095808         0.009895
 C         0.581877        -0.407711        -0.958453
 C         0.354833        -1.239929         0.428079
 C         0.595061         0.050661         1.140057
 O         0.950934        -0.053987         2.492858
 C         1.683034        -1.286900         2.725558
 O         2.693966        -1.441228         1.758866
 C         1.948420        -1.397251         0.457927
 H         3.541360         0.932033         0.742960
 H         3.407978         0.918917        -1.103522
 H         2.473201         2.134937        -0.320765
 H        -0.236559         0.253526        -1.246937
 H         0.749133        -0.980056        -1.975138
 H        -0.274517        -2.070143         0.470379
 H        -0.223849         0.770698         0.954609
 H         2.075997        -1.201893         3.718228
 H         0.963836        -2.185771         2.648995
 H         2.267812        -2.238876        -0.174506
