19
Iteration:  1157charge 0 multiplicity 1
 C         2.714019         1.125893        -0.204035
 C         1.590649         0.182579         0.070315
 C         0.468070        -0.361003        -0.915997
 C         0.409919        -1.227991         0.287982
 C         0.620226        -0.079623         1.310438
 O         1.088612         0.001333         2.549482
 C         1.779538        -1.215541         2.809912
 O         2.641338        -1.656803         1.675673
 C         2.027608        -1.389010         0.338977
 H         3.646773         0.879635         0.260272
 H         2.927566         0.765112        -1.205408
 H         2.582967         2.247976        -0.338197
 H        -0.248965         0.384190        -1.058249
 H         0.811703        -0.754832        -1.911531
 H        -0.257743        -2.078502         0.255430
 H        -0.272754         0.651995         1.301904
 H         2.442650        -0.987066         3.569656
 H         1.059408        -1.991872         2.965115
 H         2.741744        -2.034085        -0.311958
