19
Iteration:  1094charge 0 multiplicity 1
 C         2.549533         1.262936        -0.184143
 C         1.725305         0.018492        -0.003062
 C         0.602623        -0.447893        -0.923286
 C         0.300806        -1.215335         0.384757
 C         0.644823         0.143027         1.208488
 O         1.245749        -0.004431         2.538971
 C         1.741771        -1.398141         2.729201
 O         2.643278        -1.624309         1.644777
 C         1.956517        -1.399226         0.477260
 H         2.867745         1.522947         0.801909
 H         3.428029         0.844383        -0.764547
 H         2.055253         2.087256        -0.764578
 H         0.084271         0.529098        -1.030548
 H         0.840360        -1.009693        -1.876229
 H        -0.495727        -2.072148         0.598087
 H        -0.076731         1.004183         1.237824
 H         2.231616        -1.351956         3.689892
 H         0.793135        -2.069118         2.744954
 H         2.236650        -1.975354        -0.352654
