19
Iteration:   956charge 0 multiplicity 1
 C         2.688086         1.146164        -0.221081
 C         1.649300         0.124193         0.059151
 C         0.531549        -0.352632        -0.954528
 C         0.428761        -1.302485         0.318676
 C         0.536011        -0.026522         1.278783
 O         1.229901         0.057821         2.595799
 C         1.703101        -1.241637         2.778247
 O         2.610782        -1.699563         1.698696
 C         1.995390        -1.347046         0.322579
 H         3.494663         1.394428         0.530980
 H         3.114447         0.944280        -1.255086
 H         2.241170         2.099405        -0.486558
 H        -0.275477         0.398797        -1.007354
 H         0.743874        -0.905953        -1.824466
 H        -0.246044        -2.115898         0.382384
 H        -0.267128         0.750343         1.399826
 H         2.307876        -1.384140         3.747179
 H         0.781674        -1.996648         2.749157
 H         2.708009        -1.899739        -0.430231
