19
Iteration:  1201charge 0 multiplicity 1
 C         2.704040         1.215920        -0.125276
 C         1.744218         0.134595         0.005222
 C         0.462559        -0.503272        -0.915938
 C         0.337200        -1.195215         0.414040
 C         0.660071         0.095493         1.125941
 O         1.038030        -0.097353         2.603250
 C         1.779900        -1.265266         2.766056
 O         2.689801        -1.549813         1.609284
 C         1.964005        -1.433123         0.372971
 H         3.503580         0.878414         0.504680
 H         3.185085         1.233958        -1.103880
 H         2.350995         2.234632         0.252479
 H        -0.242554         0.063108        -1.457455
 H         0.721486        -1.337759        -1.639619
 H        -0.507520        -1.749924         0.865663
 H        -0.104546         0.959845         1.097137
 H         2.460719        -1.191786         3.558609
 H         1.201640        -2.167535         2.781388
 H         2.398050        -2.136974        -0.481306
