19
Iteration:  4342
 C         2.839314         0.979579        -0.214342
 C         1.698165         0.056634         0.072869
 C         0.686166        -0.390271        -0.947384
 C         0.384275        -1.247386         0.410967
 C         0.566222         0.132165         1.167339
 O         0.929694        -0.075370         2.503888
 C         1.748704        -1.326471         2.706633
 O         2.577076        -1.400437         1.703646
 C         1.934268        -1.360174         0.503856
 H         3.501419         0.966878         0.702341
 H         3.466497         0.415966        -1.051645
 H         2.633038         2.095564        -0.269299
 H        -0.208808         0.336236        -1.279583
 H         1.157895        -0.866126        -1.789068
 H        -0.304012        -2.140927         0.309796
 H        -0.228154         0.839255         1.079364
 H         2.361252        -1.164306         3.623540
 H         0.959607        -2.075470         2.642043
 H         2.692945        -1.897683        -0.188734
