19
Iteration:  2919charge 0 multiplicity 1
 C         2.654857         1.285492        -0.083244
 C         1.746842         0.140286        -0.031254
 C         0.614830        -0.443731        -0.912676
 C         0.393625        -1.325041         0.389636
 C         0.636182         0.096629         1.166026
 O         1.227771         0.040977         2.511840
 C         1.684295        -1.307216         2.693082
 O         2.502689        -1.724868         1.661921
 C         1.944922        -1.407162         0.425836
 H         3.278854         1.385140         0.886232
 H         3.414424         1.364076        -0.838141
 H         2.050720         2.224292        -0.055098
 H        -0.194482         0.309293        -1.108273
 H         0.897175        -1.106059        -1.810098
 H        -0.386614        -2.120569         0.523199
 H        -0.074266         0.874601         1.154116
 H         2.295294        -1.316687         3.651716
 H         0.846597        -2.064947         2.827049
 H         2.516753        -2.062567        -0.289847
