19
Iteration:  3346
 C         2.813609         1.088479        -0.174900
 C         1.759587         0.103322         0.062243
 C         0.553559        -0.432350        -0.834140
 C         0.351376        -1.198024         0.403792
 C         0.644711         0.122386         1.235127
 O         0.950844        -0.104104         2.634303
 C         1.750907        -1.330406         2.678967
 O         2.603521        -1.499239         1.592924
 C         1.972898        -1.363479         0.268411
 H         3.508154         1.265481         0.597427
 H         3.489947         0.866723        -0.991216
 H         2.493879         2.139222        -0.445654
 H        -0.191096         0.258876        -1.107046
 H         0.759962        -0.982184        -1.804466
 H        -0.358046        -2.028900         0.643701
 H        -0.134529         0.929100         1.379158
 H         2.383326        -1.280729         3.596483
 H         1.032067        -2.225212         2.712304
 H         2.417229        -2.146529        -0.394329
