19
Iteration:  4421
 C         2.675319         1.219658        -0.160643
 C         1.742606         0.096259         0.036097
 C         0.706988        -0.529142        -0.946171
 C         0.374273        -1.251542         0.335503
 C         0.515415         0.111199         1.129887
 O         1.238505         0.068314         2.448491
 C         1.577239        -1.264350         2.715660
 O         2.517927        -1.753935         1.781454
 C         2.061875        -1.351961         0.515147
 H         3.143880         1.441585         0.837703
 H         3.432663         1.234731        -1.060424
 H         1.907725         2.044893        -0.304241
 H        -0.063530         0.315553        -1.191103
 H         1.062034        -1.068812        -1.875204
 H        -0.328963        -2.077717         0.481144
 H        -0.189813         0.927739         1.005673
 H         2.175533        -1.299119         3.651746
 H         0.763897        -1.902693         3.035396
 H         2.588961        -1.993253        -0.270397
