19
Iteration:   852charge 0 multiplicity 1
 C         2.738645         1.075474        -0.143102
 C         1.665597         0.114773         0.071459
 C         0.442241        -0.443286        -0.866291
 C         0.421380        -1.294415         0.352975
 C         0.649936         0.089201         1.230950
 O         1.118435         0.050548         2.542924
 C         1.737990        -1.257532         2.698556
 O         2.623680        -1.648227         1.601316
 C         2.013223        -1.309500         0.394516
 H         3.305105         1.041069         0.805723
 H         3.415667         0.713791        -0.902507
 H         2.393635         2.122386        -0.324289
 H        -0.481616         0.147839        -1.017367
 H         0.673665        -1.006137        -1.849097
 H        -0.287656        -2.239274         0.470374
 H        -0.113797         0.875257         1.123079
 H         2.260894        -1.068055         3.631111
 H         0.871243        -1.953740         2.798644
 H         2.500260        -1.745949        -0.418415
