19
Iteration:  4659
 C         2.838896         1.145260        -0.192538
 C         1.716141         0.144843         0.147362
 C         0.516618        -0.484405        -0.930768
 C         0.385646        -1.327792         0.353003
 C         0.663923         0.150242         1.156581
 O         1.052062         0.006087         2.457722
 C         1.640188        -1.316223         2.693163
 O         2.613690        -1.594928         1.764697
 C         1.968740        -1.333696         0.417409
 H         3.279726         1.472749         0.712804
 H         3.620487         0.673973        -0.767604
 H         2.422312         1.926932        -0.784807
 H        -0.334017         0.196558        -1.227647
 H         0.885935        -0.980347        -1.781069
 H        -0.269323        -2.273320         0.392635
 H        -0.221569         0.797538         1.182380
 H         2.094279        -1.098083         3.719035
 H         0.976724        -2.119147         2.961872
 H         2.566429        -1.891821        -0.201071
