19
Iteration:   637
 C         2.730733         1.160113        -0.100337
 C         1.680082         0.052933         0.045331
 C         0.614598        -0.369953        -0.993874
 C         0.294734        -1.248831         0.438019
 C         0.548055         0.003281         1.185729
 O         1.182443        -0.049406         2.471099
 C         1.865891        -1.215031         2.814344
 O         2.594485        -1.582309         1.606501
 C         1.842889        -1.414775         0.408045
 H         3.537894         1.157423         0.612990
 H         3.157044         1.075281        -1.153953
 H         2.213564         2.131856         0.020993
 H        -0.185714         0.335504        -1.170453
 H         0.831312        -1.027285        -1.819881
 H        -0.393193        -2.005735         0.455853
 H        -0.085232         0.886920         1.225115
 H         2.535618        -0.899557         3.546888
 H         1.228562        -1.916039         3.274679
 H         2.241582        -2.227754        -0.310639
