19
Iteration:  1467charge 0 multiplicity 1
 C         2.638502         1.221239        -0.225622
 C         1.671884         0.063882        -0.030872
 C         0.555080        -0.355904        -0.917383
 C         0.311119        -1.212956         0.327707
 C         0.657682         0.118388         1.241347
 O         1.090051        -0.104656         2.607116
 C         1.750033        -1.338106         2.702935
 O         2.730328        -1.522528         1.650029
 C         1.977870        -1.487320         0.490479
 H         3.191211         1.374958         0.738610
 H         3.472218         0.695156        -0.763525
 H         2.233714         2.072244        -0.675353
 H        -0.219913         0.387090        -1.176928
 H         0.810489        -0.943912        -1.731430
 H        -0.563306        -1.882571         0.534211
 H        -0.034425         1.005525         1.277778
 H         2.278829        -1.473876         3.697625
 H         0.898482        -2.128906         2.682927
 H         2.500914        -2.161359        -0.265816
