19
Iteration:   984charge 0 multiplicity 1
 C         2.737504         1.174055        -0.133376
 C         1.628161         0.157750         0.056164
 C         0.502552        -0.450212        -0.840445
 C         0.423892        -1.296726         0.480426
 C         0.660393         0.066911         1.166299
 O         1.121438        -0.030552         2.468478
 C         1.714305        -1.291772         2.693456
 O         2.595407        -1.571367         1.613639
 C         1.971243        -1.388859         0.378325
 H         3.536145         1.033470         0.576063
 H         3.158708         1.029497        -1.143495
 H         2.625334         2.285053        -0.091817
 H        -0.380978         0.210278        -0.934683
 H         0.762376        -1.051285        -1.777227
 H        -0.368419        -2.119666         0.733298
 H         0.055204         0.976847         1.200672
 H         2.317275        -1.343972         3.547708
 H         1.048889        -2.104403         2.758640
 H         2.552928        -1.918819        -0.302060
