19
Iteration:  2591
 C         2.653224         1.179956        -0.039234
 C         1.614199         0.132655         0.055848
 C         0.643546        -0.355097        -0.990948
 C         0.410259        -1.294609         0.300066
 C         0.599363         0.017949         1.185524
 O         1.242974         0.038969         2.518144
 C         1.756041        -1.202772         2.814447
 O         2.543733        -1.764933         1.660024
 C         1.916211        -1.400536         0.353923
 H         3.556179         1.166153         0.686280
 H         3.010900         1.387298        -1.025355
 H         2.152226         2.123464         0.253557
 H        -0.219875         0.222378        -1.241596
 H         1.087549        -0.871259        -1.827548
 H        -0.300635        -2.137302         0.377849
 H        -0.213167         0.690386         1.014625
 H         2.448863        -1.085994         3.658724
 H         0.927058        -1.895483         3.102764
 H         2.288091        -1.901454        -0.512340
