19
Iteration:   342
 C         2.691857         1.106034        -0.118750
 C         1.720644         0.054759         0.062250
 C         0.539532        -0.470786        -0.805925
 C         0.284490        -1.227484         0.473739
 C         0.712844         0.073052         1.163521
 O         1.160422         0.012372         2.499422
 C         1.697446        -1.239346         2.634014
 O         2.630303        -1.573256         1.617606
 C         2.007991        -1.399122         0.335301
 H         3.173960         1.407967         0.877224
 H         3.497690         0.917174        -0.812702
 H         2.068458         1.978184        -0.548527
 H        -0.114086         0.355136        -1.088496
 H         0.962385        -1.052875        -1.696662
 H        -0.613849        -1.878689         0.763747
 H        -0.175103         0.810507         1.312230
 H         2.029187        -1.564824         3.671978
 H         0.671514        -1.724293         2.667180
 H         2.434922        -2.020359        -0.457395
