19
Iteration:  3070charge 0 multiplicity 1
 C         2.588331         1.317525        -0.172088
 C         1.757072         0.120639         0.000949
 C         0.685464        -0.403541        -0.839636
 C         0.338853        -1.229268         0.389524
 C         0.649961         0.086220         1.127482
 O         1.194565        -0.059441         2.447275
 C         1.696190        -1.335486         2.730758
 O         2.571557        -1.795837         1.705952
 C         1.925571        -1.397533         0.480454
 H         3.293117         1.610873         0.662506
 H         3.326548         1.303109        -0.986891
 H         2.118355         2.246172        -0.370068
 H        -0.073969         0.348514        -1.112213
 H         0.932431        -0.870724        -1.742967
 H        -0.653955        -1.783806         0.415519
 H         0.161825         1.088698         1.318971
 H         2.264288        -1.116437         3.674841
 H         0.777984        -2.034824         2.903468
 H         2.338219        -2.006084        -0.330968
