19
Iteration:  2853charge 0 multiplicity 1
 C         2.796001         1.152089        -0.307700
 C         1.624333         0.169225         0.079527
 C         0.589703        -0.249453        -0.918340
 C         0.452549        -1.291865         0.332640
 C         0.646373         0.021624         1.253200
 O         1.025454        -0.110310         2.634895
 C         1.695859        -1.291455         2.735252
 O         2.573960        -1.653485         1.657959
 C         2.002290        -1.308864         0.401572
 H         3.355961         1.489347         0.632355
 H         3.430292         0.561358        -0.956906
 H         2.364689         2.012994        -0.805179
 H        -0.345911         0.373537        -1.028509
 H         0.905359        -0.889577        -1.796553
 H        -0.113753        -2.255161         0.288689
 H        -0.154112         0.665108         1.355403
 H         2.325679        -1.183069         3.682243
 H         0.877667        -2.043472         2.939684
 H         2.511100        -1.907057        -0.411705
