19
Iteration:   600
 C         2.698423         1.103495        -0.136237
 C         1.657817         0.055684        -0.018809
 C         0.512427        -0.458678        -0.872797
 C         0.470523        -1.250748         0.516400
 C         0.630356         0.079769         1.255539
 O         1.165802         0.085752         2.529572
 C         1.611627        -1.297376         2.681016
 O         2.613983        -1.619411         1.580823
 C         2.036042        -1.328225         0.377448
 H         3.512065         0.965654         0.658340
 H         3.184012         1.141314        -1.082528
 H         2.251863         2.127707        -0.067894
 H        -0.193337         0.373572        -1.053371
 H         0.752444        -1.059811        -1.853358
 H        -0.206298        -2.236465         0.756440
 H        -0.243687         0.765140         1.100781
 H         2.293407        -1.366821         3.581148
 H         0.858544        -2.069054         2.585561
 H         2.347648        -1.926643        -0.527283
