19
Iteration:   895
 C         2.668780         1.162420        -0.223023
 C         1.676752         0.101857         0.006705
 C         0.588276        -0.441052        -0.884698
 C         0.334074        -1.216401         0.387956
 C         0.675888         0.127916         1.194461
 O         1.113046        -0.086575         2.582958
 C         1.784847        -1.279000         2.768313
 O         2.587483        -1.631147         1.647851
 C         1.971963        -1.374738         0.375876
 H         3.065904         1.565274         0.747840
 H         3.493014         0.876999        -0.858567
 H         2.069622         2.031239        -0.642166
 H        -0.253704         0.223048        -1.162499
 H         0.966074        -1.021038        -1.822261
 H        -0.580452        -1.925456         0.527927
 H         0.052164         1.068302         1.213263
 H         2.448507        -1.281344         3.672673
 H         1.017450        -2.108244         2.999217
 H         2.542736        -1.902627        -0.380156
