19
Iteration:  1266charge 0 multiplicity 1
 C         2.659927         1.293950        -0.247236
 C         1.710601         0.093081         0.001517
 C         0.543486        -0.419170        -0.910543
 C         0.394312        -1.218800         0.297819
 C         0.582476         0.100755         1.248222
 O         1.131834        -0.024856         2.588882
 C         1.842596        -1.325087         2.757515
 O         2.593108        -1.738538         1.667367
 C         1.925761        -1.368855         0.454990
 H         3.017622         1.639915         0.692487
 H         3.430950         0.921355        -0.890667
 H         2.206559         2.161874        -0.830025
 H        -0.168752         0.309803        -1.204849
 H         0.856270        -1.127218        -1.722732
 H        -0.088404        -2.157243         0.357945
 H        -0.300180         0.815674         1.356155
 H         2.339541        -1.188774         3.683748
 H         1.023824        -2.052605         3.033991
 H         2.609949        -1.963857        -0.306896
