19
Iteration:   737
 C         2.674942         1.190181        -0.191330
 C         1.672428         0.058990        -0.015263
 C         0.593626        -0.400278        -0.775472
 C         0.375173        -1.213627         0.491690
 C         0.614314         0.101739         1.213176
 O         1.191109        -0.045283         2.480960
 C         1.688846        -1.311451         2.673722
 O         2.629734        -1.591330         1.655740
 C         1.957609        -1.413493         0.360346
 H         3.148903         1.322272         0.785161
 H         3.492695         0.851793        -0.959391
 H         2.279842         2.084610        -0.680779
 H        -0.315996         0.230749        -0.952820
 H         0.755530        -1.001328        -1.620038
 H        -0.346421        -1.928428         0.560388
 H        -0.068759         0.969907         1.209848
 H         2.164249        -1.251603         3.683750
 H         0.810719        -2.046036         2.622369
 H         2.464103        -2.171726        -0.423737
