19
Iteration:  3219charge 0 multiplicity 1
 C         2.679660         1.206391        -0.233075
 C         1.671537         0.179526         0.094667
 C         0.611786        -0.365091        -0.845056
 C         0.441487        -1.299506         0.365616
 C         0.670226        -0.008237         1.202799
 O         1.173060        -0.020981         2.578806
 C         1.669371        -1.257727         2.714962
 O         2.497640        -1.720588         1.653618
 C         1.978685        -1.359066         0.364510
 H         3.501555         1.318553         0.503382
 H         3.304352         1.035772        -1.221105
 H         2.442674         2.300138        -0.420484
 H        -0.222332         0.440097        -1.035574
 H         1.227814        -0.751693        -1.688619
 H        -0.406882        -2.014164         0.426752
 H        -0.210088         0.663682         1.231146
 H         2.190118        -1.331622         3.690167
 H         0.791107        -2.058591         2.856632
 H         2.412294        -1.879666        -0.535409
