19
Iteration:  1291
 C         2.650314         1.339175        -0.252549
 C         1.729388         0.088971         0.054977
 C         0.605545        -0.419610        -0.874810
 C         0.343937        -1.223360         0.464146
 C         0.712103         0.043774         1.182189
 O         1.035777        -0.166664         2.530177
 C         1.774052        -1.273209         2.742818
 O         2.616173        -1.628047         1.609794
 C         1.921999        -1.420965         0.384865
 H         3.009692         1.812900         0.666072
 H         3.512284         0.781499        -0.800690
 H         2.289851         2.075219        -0.947745
 H        -0.158406         0.390969        -1.162665
 H         0.868568        -0.976015        -1.763120
 H        -0.437884        -1.844148         1.149715
 H         0.140536         1.040771         1.307260
 H         2.317174        -0.949913         3.676025
 H         1.125511        -2.085051         3.036876
 H         2.487121        -2.138785        -0.330737
