19
Iteration:    99charge 0 multiplicity 1
 C         2.687483         1.231146        -0.325342
 C         1.704914         0.129909         0.008029
 C         0.545026        -0.361398        -0.889371
 C         0.423018        -1.260431         0.386986
 C         0.700918         0.074184         1.137216
 O         1.092126        -0.079591         2.580768
 C         1.740621        -1.296906         2.846924
 O         2.575246        -1.662429         1.677218
 C         1.959465        -1.407405         0.439869
 H         3.366560         1.341989         0.519229
 H         3.253834         0.873605        -1.160534
 H         2.251901         2.173505        -0.626618
 H        -0.327218         0.268427        -1.057991
 H         0.917901        -0.778304        -1.843405
 H        -0.408034        -1.846211         0.601647
 H        -0.181975         0.712865         1.279414
 H         2.380955        -1.117053         3.700817
 H         0.931253        -1.983003         3.017572
 H         2.437203        -2.068746        -0.312728
