19
Iteration:  1613charge 0 multiplicity 1
 C         2.781931         1.167908        -0.284584
 C         1.719757         0.115032         0.057269
 C         0.573294        -0.323269        -0.815871
 C         0.388283        -1.306208         0.293783
 C         0.472930        -0.037798         1.299305
 O         1.067754        -0.004513         2.606829
 C         1.766392        -1.269058         2.695915
 O         2.654035        -1.601352         1.618965
 C         2.002677        -1.363850         0.408289
 H         3.637580         1.018813         0.368370
 H         3.024504         0.879025        -1.265748
 H         2.464328         2.259485        -0.225304
 H        -0.304647         0.252967        -0.862722
 H         0.896286        -0.594568        -1.826366
 H        -0.407807        -2.185647         0.410925
 H        -0.423159         0.582840         1.391713
 H         2.253696        -1.246527         3.662141
 H         0.872706        -1.964078         2.635133
 H         2.414550        -2.081017        -0.253088
