19
Iteration:  2163charge 0 multiplicity 1
 C         2.774100         1.177553        -0.297126
 C         1.722332         0.135701         0.058053
 C         0.568916        -0.411307        -0.863002
 C         0.312189        -1.162595         0.403203
 C         0.629198         0.111529         1.212960
 O         0.962461        -0.197997         2.627022
 C         1.760628        -1.381731         2.693064
 O         2.672099        -1.508040         1.626310
 C         2.014278        -1.359043         0.403616
 H         3.372941         1.186485         0.636058
 H         3.441845         0.702079        -1.076967
 H         2.287186         2.110142        -0.486353
 H        -0.170392         0.471435        -1.043707
 H         0.854249        -0.967199        -1.756211
 H        -0.588239        -1.843275         0.504568
 H        -0.054161         0.971574         1.269160
 H         2.274466        -1.343059         3.646307
 H         1.081983        -2.258010         2.749056
 H         2.402671        -2.036310        -0.327539
