19
Iteration:  2264
 C         2.726584         1.384485        -0.089709
 C         1.725843         0.126425         0.053345
 C         0.610742        -0.475169        -0.951443
 C         0.372670        -1.205683         0.359312
 C         0.549775         0.075309         1.227488
 O         1.132298        -0.064211         2.492141
 C         1.801848        -1.224942         2.779594
 O         2.559879        -1.794344         1.606735
 C         1.907476        -1.417429         0.389610
 H         3.237835         1.510843         0.915522
 H         3.481259         0.986571        -0.776853
 H         2.046914         2.227690        -0.311448
 H        -0.232256         0.194057        -1.331458
 H         0.996115        -1.070209        -1.812181
 H        -0.262968        -2.055907         0.589400
 H        -0.225292         0.874879         1.243291
 H         2.611078        -0.913958         3.480321
 H         1.115581        -2.049058         3.085256
 H         2.252860        -2.111911        -0.391705
