19
Iteration:  3579
 C         2.672583         1.321746        -0.158830
 C         1.663184         0.143226         0.034877
 C         0.618205        -0.412732        -0.947955
 C         0.447675        -1.292549         0.389444
 C         0.615934         0.030927         1.224494
 O         1.276463         0.048189         2.443564
 C         1.692416        -1.263590         2.764087
 O         2.438016        -1.799960         1.683409
 C         2.004148        -1.391028         0.433355
 H         3.484324         1.166335         0.571143
 H         3.052227         1.244991        -1.239451
 H         2.191457         2.208486         0.128535
 H        -0.298538         0.200082        -1.259651
 H         0.967272        -0.862838        -1.860032
 H        -0.309305        -2.008524         0.613101
 H        -0.261583         0.678870         1.373411
 H         2.249248        -1.297020         3.703945
 H         0.724108        -1.910056         2.847353
 H         2.639053        -2.009050        -0.291895
