19
Iteration:  3563
 C         2.662389         1.274846        -0.196123
 C         1.718610         0.172053        -0.003640
 C         0.563050        -0.455743        -0.864491
 C         0.421567        -1.215425         0.336043
 C         0.652588         0.140791         1.104548
 O         1.174179        -0.020404         2.532912
 C         1.690138        -1.331359         2.736846
 O         2.560311        -1.818466         1.735482
 C         1.973901        -1.383412         0.467365
 H         3.406294         1.153118         0.583577
 H         3.079076         1.456146        -1.167129
 H         2.217161         2.324994         0.008204
 H        -0.191358         0.286471        -1.090902
 H         0.803615        -1.057667        -1.812975
 H        -0.262875        -2.117706         0.435536
 H        -0.073863         1.004272         0.990886
 H         2.285289        -1.163862         3.665188
 H         0.949377        -2.036294         3.071553
 H         2.288054        -1.839155        -0.448544
