19
Iteration:  3458charge 0 multiplicity 1
 C         2.673642         1.196914        -0.116921
 C         1.669542         0.058516         0.022755
 C         0.607211        -0.340161        -0.897708
 C         0.363910        -1.208345         0.375091
 C         0.672463         0.091695         1.158745
 O         1.132314        -0.049499         2.537674
 C         1.737956        -1.287693         2.770642
 O         2.628343        -1.604273         1.622684
 C         1.942929        -1.481575         0.416517
 H         3.175941         1.284076         0.837104
 H         3.420123         0.664348        -0.765791
 H         2.092509         2.075525        -0.370255
 H        -0.224367         0.312534        -1.195360
 H         0.897943        -0.965108        -1.746394
 H        -0.606435        -1.771337         0.303018
 H        -0.126508         0.863870         1.252574
 H         2.370964        -1.177649         3.647131
 H         1.032077        -2.060067         2.691541
 H         2.227019        -2.099637        -0.473692
