19
Iteration:  1170
 C         2.744065         1.125094        -0.255642
 C         1.670152         0.097070         0.140769
 C         0.588093        -0.297142        -0.870063
 C         0.345414        -1.341290         0.321979
 C         0.492927        -0.008170         1.170117
 O         1.099631        -0.030115         2.577986
 C         1.836888        -1.209137         2.757809
 O         2.660388        -1.584378         1.631433
 C         1.942806        -1.394556         0.414010
 H         3.585027         0.945506         0.380737
 H         2.973579         1.048726        -1.351591
 H         2.469400         2.179687         0.005809
 H        -0.230430         0.406449        -1.102067
 H         0.918872        -0.855220        -1.772531
 H        -0.499299        -2.102443         0.499227
 H        -0.382059         0.711478         1.151339
 H         2.480286        -1.145750         3.632640
 H         1.151882        -2.068486         2.987977
 H         2.365866        -1.931925        -0.432932
