19
Iteration:   350
 C         2.692821         1.157958        -0.199676
 C         1.716646         0.033677         0.086686
 C         0.579351        -0.450788        -0.834237
 C         0.220035        -1.231782         0.449564
 C         0.732513         0.063156         1.165876
 O         1.176443        -0.020232         2.541136
 C         1.671308        -1.281817         2.708323
 O         2.597764        -1.586877         1.624792
 C         2.002425        -1.365380         0.391064
 H         3.200982         1.624913         0.702535
 H         3.355076         0.887293        -1.011498
 H         1.986793         1.980176        -0.519354
 H        -0.018941         0.390520        -1.159024
 H         1.035102        -0.963662        -1.751319
 H        -0.649091        -1.785452         0.571495
 H         0.003239         0.919088         1.041213
 H         2.346981        -1.212789         3.559790
 H         0.912656        -2.106216         2.556992
 H         2.497616        -2.104867        -0.357871
