19
Iteration:  3111
 C         2.725555         1.263393        -0.119713
 C         1.683766         0.137572         0.033937
 C         0.614523        -0.414594        -0.846560
 C         0.369504        -1.307722         0.356775
 C         0.633785         0.087629         1.189500
 O         1.184551         0.031979         2.534361
 C         1.700985        -1.245002         2.756592
 O         2.511940        -1.761476         1.611617
 C         1.977104        -1.402941         0.365292
 H         3.225587         1.225642         0.860177
 H         3.539591         1.050471        -0.918274
 H         2.254268         2.235222        -0.044630
 H        -0.303095         0.246313        -1.177528
 H         0.866312        -0.904704        -1.779218
 H        -0.246223        -2.260661         0.383719
 H        -0.275691         0.888056         1.046872
 H         2.386208        -1.296417         3.623001
 H         0.946836        -1.964947         2.814117
 H         2.436350        -1.950772        -0.479976
