19
Iteration:  1443charge 0 multiplicity 1
 C         2.742913         1.208257        -0.226859
 C         1.703043         0.134781         0.073006
 C         0.527019        -0.355206        -0.853196
 C         0.420214        -1.322374         0.427421
 C         0.582435        -0.002993         1.209448
 O         1.145483        -0.004929         2.503887
 C         1.725260        -1.338378         2.722777
 O         2.577075        -1.628466         1.631251
 C         1.949788        -1.294352         0.422949
 H         3.535779         1.288842         0.516115
 H         3.311983         0.736088        -1.100755
 H         2.182878         2.125377        -0.448387
 H        -0.415806         0.145383        -1.042703
 H         0.925590        -0.822886        -1.746406
 H         0.044071        -2.263612         0.660136
 H        -0.228148         0.793519         1.126268
 H         2.353849        -1.420144         3.654443
 H         0.809339        -2.016400         2.874121
 H         2.546839        -1.767643        -0.465841
