19
Iteration:  1295charge 0 multiplicity 1
 C         2.651691         1.324423        -0.249306
 C         1.746548         0.037350         0.069440
 C         0.593193        -0.403103        -0.835109
 C         0.320510        -1.211287         0.448535
 C         0.703860         0.077852         1.211825
 O         1.006707        -0.140603         2.520297
 C         1.787294        -1.266375         2.722359
 O         2.637825        -1.624482         1.605165
 C         1.942007        -1.445281         0.400414
 H         3.118098         1.843156         0.653853
 H         3.481770         0.794194        -0.735651
 H         2.231862         2.029647        -0.977508
 H        -0.085608         0.410197        -1.190430
 H         0.820367        -0.997744        -1.735359
 H        -0.337620        -1.991234         0.977760
 H         0.035225         0.923423         1.192847
 H         2.397199        -0.988674         3.623037
 H         1.111852        -2.148216         2.824140
 H         2.406500        -1.984964        -0.364070
