19
Iteration:  1570
 C         2.688401         1.335837        -0.101993
 C         1.720084         0.094045        -0.008013
 C         0.514328        -0.544960        -0.908681
 C         0.359935        -1.160461         0.480660
 C         0.640139         0.153381         1.162990
 O         1.108261        -0.069715         2.530146
 C         1.759435        -1.272199         2.655492
 O         2.628054        -1.714511         1.622971
 C         2.028809        -1.440462         0.434233
 H         3.294597         1.261238         0.756171
 H         3.131478         1.542120        -1.017493
 H         1.999441         2.187636         0.177359
 H        -0.194458         0.184604        -1.246381
 H         0.678653        -1.310241        -1.717231
 H        -0.490420        -1.915332         0.502024
 H         0.022092         1.023604         1.037481
 H         2.407746        -1.155685         3.527853
 H         0.946729        -2.111461         2.751496
 H         2.331706        -2.127766        -0.304481
