19
Iteration:  3427charge 0 multiplicity 1
 C         2.678872         1.375108        -0.099930
 C         1.725879         0.121254         0.070101
 C         0.561368        -0.445955        -0.921749
 C         0.404502        -1.255358         0.387452
 C         0.656068         0.083870         1.125297
 O         1.225773         0.025738         2.481697
 C         1.718178        -1.244647         2.755049
 O         2.509910        -1.830159         1.636919
 C         1.946007        -1.450750         0.437444
 H         3.326717         1.416659         0.805226
 H         3.188694         1.237427        -1.114044
 H         2.068574         2.279846        -0.210332
 H        -0.281101         0.262050        -1.088843
 H         0.936091        -1.050566        -1.691552
 H        -0.461922        -1.921669         0.395802
 H        -0.103978         0.803477         1.239308
 H         2.387264        -1.248543         3.612805
 H         0.920161        -2.063060         2.979100
 H         2.398492        -2.034894        -0.377479
