19
Iteration:  1689charge 0 multiplicity 1
 C         2.635566         1.141253        -0.129980
 C         1.659687         0.097182         0.076682
 C         0.651184        -0.407321        -0.880079
 C         0.373608        -1.253156         0.391404
 C         0.641195         0.098002         1.179537
 O         1.154123        -0.025905         2.524207
 C         1.782894        -1.329151         2.675390
 O         2.639682        -1.625406         1.602303
 C         1.877015        -1.371104         0.424710
 H         2.888425         1.356688         0.931723
 H         3.432250         0.863271        -0.789216
 H         2.048049         2.063586        -0.582490
 H        -0.017879         0.404587        -1.009614
 H         0.913886        -0.957142        -1.769592
 H        -0.675525        -1.793256         0.569378
 H        -0.058615         0.928911         1.260878
 H         2.377321        -1.281563         3.578555
 H         0.978259        -1.980603         2.798311
 H         2.401075        -1.877766        -0.372569
