19
Iteration:  3413
 C         2.599581         1.297654        -0.166875
 C         1.653227         0.220778         0.016642
 C         0.678669        -0.416546        -0.842839
 C         0.458109        -1.274575         0.383438
 C         0.669659         0.059775         1.270416
 O         1.217407         0.066333         2.497033
 C         1.691647        -1.292663         2.734502
 O         2.451356        -1.851583         1.655952
 C         1.976616        -1.435951         0.327614
 H         3.364042         1.198401         0.564200
 H         3.327070         1.173210        -1.012795
 H         2.242011         2.343789         0.063494
 H        -0.187316         0.114245        -1.152709
 H         0.944106        -0.840759        -1.862827
 H        -0.185554        -2.183670         0.757233
 H        -0.160948         0.821293         0.998151
 H         2.437080        -1.076750         3.517938
 H         0.753571        -1.780825         2.968260
 H         2.470646        -2.094019        -0.469898
