19
Iteration:  1515
 C         2.761747         1.211868        -0.200921
 C         1.574024         0.221638         0.044314
 C         0.508045        -0.357183        -0.955145
 C         0.432566        -1.349147         0.313823
 C         0.564122         0.007424         1.214877
 O         1.152029         0.014441         2.575735
 C         1.846859        -1.292698         2.800648
 O         2.600230        -1.760047         1.690966
 C         1.937323        -1.307675         0.352000
 H         3.154556         1.553883         0.740965
 H         3.552068         0.767327        -0.734413
 H         2.334637         2.087748        -0.774092
 H        -0.341478         0.310008        -1.088723
 H         0.964183        -0.713281        -1.934266
 H        -0.306236        -2.201392         0.497609
 H        -0.269698         0.687908         1.207894
 H         2.444900        -1.183834         3.686259
 H         0.998679        -1.985009         3.110997
 H         2.372930        -1.988818        -0.319482
