19
Iteration:   868
 C         2.803802         1.155776        -0.183613
 C         1.582079         0.168452         0.071268
 C         0.533888        -0.352710        -0.828247
 C         0.347407        -1.346193         0.419703
 C         0.496124        -0.019766         1.193387
 O         1.195786         0.042574         2.486673
 C         1.712049        -1.205493         2.686898
 O         2.686092        -1.635010         1.668083
 C         1.982881        -1.428407         0.371888
 H         3.389819         1.403910         0.704032
 H         3.454495         0.617261        -0.933762
 H         2.513765         2.127307        -0.554857
 H        -0.283414         0.385548        -0.983044
 H         0.901791        -0.732893        -1.724381
 H        -0.479480        -1.969839         0.551767
 H        -0.434173         0.565656         1.267168
 H         2.222335        -1.462470         3.627340
 H         0.950172        -1.983407         2.660929
 H         2.595251        -2.110693        -0.372192
