19
Iteration:  4159
 C         2.893777         1.141436        -0.179362
 C         1.684353         0.193543        -0.024187
 C         0.599754        -0.464908        -0.945629
 C         0.404368        -1.204136         0.369989
 C         0.623824         0.054117         1.171134
 O         0.901429        -0.058429         2.547149
 C         1.738390        -1.272634         2.761663
 O         2.607258        -1.559704         1.707114
 C         1.920306        -1.433213         0.428813
 H         3.593088         0.988603         0.636010
 H         3.462658         0.739240        -1.078098
 H         2.707045         2.203610        -0.047681
 H        -0.446553         0.065989        -1.158376
 H         0.996877        -0.829615        -1.915905
 H        -0.274096        -2.061258         0.641333
 H        -0.173413         0.851832         1.067537
 H         2.478885        -0.924035         3.615161
 H         1.075334        -2.175928         2.896037
 H         2.490163        -2.117143        -0.218662
