19
Iteration:  3547charge 0 multiplicity 1
 C         2.700199         1.278291        -0.196017
 C         1.759305         0.088741         0.057142
 C         0.606181        -0.365102        -0.968420
 C         0.367187        -1.230417         0.472542
 C         0.686134         0.079627         1.214155
 O         1.060366        -0.050820         2.497458
 C         1.721039        -1.308024         2.775197
 O         2.581671        -1.686476         1.650242
 C         1.934600        -1.443296         0.388405
 H         3.625676         1.401669         0.438024
 H         3.176908         1.188550        -1.259099
 H         2.137394         2.191698        -0.204182
 H        -0.241774         0.333725        -1.176816
 H         1.027850        -0.916072        -1.755272
 H        -0.458180        -1.822137         0.777816
 H        -0.084780         0.828684         1.174006
 H         2.324745        -1.288768         3.666783
 H         0.907000        -2.070123         2.764747
 H         2.452384        -2.234590        -0.210640
