19
Iteration:  4241charge 0 multiplicity 1
 C         2.678318         1.310237        -0.187103
 C         1.723100         0.162308         0.044245
 C         0.682966        -0.419006        -0.918774
 C         0.437671        -1.255440         0.377633
 C         0.634528         0.077834         1.107976
 O         1.180496         0.019982         2.447059
 C         1.624092        -1.245205         2.742217
 O         2.472867        -1.819456         1.749960
 C         1.972608        -1.463865         0.497911
 H         3.143504         1.610146         0.787262
 H         3.468382         1.162559        -0.881929
 H         2.173211         2.168959        -0.663653
 H        -0.044274         0.280792        -1.288383
 H         1.016028        -1.139574        -1.727682
 H        -0.333136        -1.965045         0.672923
 H        -0.138034         0.849977         1.082299
 H         2.239196        -1.070808         3.593975
 H         0.838807        -1.991506         3.005986
 H         2.578322        -2.104805        -0.208124
