19
Iteration:  1017charge 0 multiplicity 1
 C         2.740527         1.237874        -0.175943
 C         1.639564         0.144875         0.002856
 C         0.640201        -0.391217        -0.935309
 C         0.280495        -1.261169         0.388517
 C         0.593035         0.063707         1.189006
 O         1.061140        -0.057732         2.607651
 C         1.913642        -1.280881         2.734491
 O         2.682195        -1.555966         1.645116
 C         1.821633        -1.553212         0.429622
 H         3.492587         1.123885         0.561143
 H         3.309434         0.980474        -1.128699
 H         2.248435         2.271959        -0.155815
 H        -0.222704         0.296819        -1.142189
 H         0.809328        -0.913719        -1.939591
 H        -0.600544        -2.069015         0.320700
 H         0.122936         1.055915         1.165061
 H         2.472480        -1.100499         3.608728
 H         1.178438        -2.084135         2.817282
 H         2.183283        -2.244578        -0.251059
