19
Iteration:  3008
 C         2.822795         1.081881        -0.199199
 C         1.691150         0.098668         0.036230
 C         0.567414        -0.280693        -0.877979
 C         0.388157        -1.223074         0.354941
 C         0.509396         0.072075         1.257983
 O         1.003770        -0.112355         2.507013
 C         1.703810        -1.376300         2.708345
 O         2.761618        -1.509643         1.728970
 C         1.940508        -1.348321         0.386422
 H         3.508709         1.165330         0.687069
 H         3.306229         0.705697        -1.067595
 H         2.234670         1.957538        -0.631173
 H        -0.258482         0.364341        -1.035237
 H         0.885306        -0.931089        -1.806571
 H        -0.338842        -1.993576         0.456138
 H        -0.100424         0.913479         1.139992
 H         2.233191        -1.242283         3.650980
 H         1.051635        -2.183591         2.739217
 H         2.191500        -2.072710        -0.410067
