19
Iteration:    49charge 0 multiplicity 1
 C         2.693062         1.240632        -0.262071
 C         1.665973         0.147670         0.008332
 C         0.566374        -0.435455        -0.937524
 C         0.371200        -1.242087         0.401527
 C         0.678469         0.073616         1.231987
 O         1.187315        -0.041893         2.534603
 C         1.726408        -1.346092         2.800553
 O         2.554060        -1.635217         1.698063
 C         1.944855        -1.391359         0.398114
 H         3.338120         1.416325         0.642012
 H         3.336285         0.901215        -1.102669
 H         2.239277         2.215986        -0.613608
 H        -0.184902         0.250854        -1.355300
 H         0.976368        -1.076241        -1.755751
 H        -0.353067        -2.114881         0.678492
 H        -0.082845         0.873765         1.320627
 H         2.343908        -1.169502         3.738414
 H         0.778808        -1.963692         2.860565
 H         2.427321        -2.046257        -0.329676
