19
Iteration:  4095
 C         2.709026         1.343204        -0.139655
 C         1.735366         0.105981         0.039544
 C         0.687920        -0.549840        -0.987393
 C         0.399067        -1.214579         0.356987
 C         0.643627         0.065400         1.178025
 O         1.208053         0.013468         2.460584
 C         1.637287        -1.289234         2.655013
 O         2.475369        -1.735238         1.759943
 C         1.918459        -1.367627         0.507504
 H         3.258918         1.557478         0.751473
 H         3.407736         1.318740        -1.025748
 H         2.038353         2.213910        -0.317893
 H        -0.183822         0.051812        -1.145379
 H         1.005439        -1.291606        -1.784318
 H        -0.294299        -2.113294         0.632165
 H        -0.057126         0.973900         1.179864
 H         2.256291        -1.251925         3.656871
 H         0.857162        -1.972624         2.973771
 H         2.444709        -2.042565        -0.276877
