19
Iteration:  4351
 C         2.904771         1.019625        -0.209066
 C         1.696011         0.103148         0.076990
 C         0.651567        -0.420437        -0.965389
 C         0.330347        -1.246309         0.327630
 C         0.514421         0.148177         1.200263
 O         0.906283        -0.110356         2.523728
 C         1.714182        -1.284974         2.773789
 O         2.694861        -1.411759         1.696552
 C         1.961895        -1.410248         0.482868
 H         3.619330         0.995035         0.641806
 H         3.431817         0.584939        -1.090219
 H         2.653761         2.076292        -0.483384
 H        -0.181223         0.223054        -1.346611
 H         1.157609        -0.945818        -1.777138
 H        -0.576917        -1.881343         0.409536
 H        -0.191498         0.988016         1.132542
 H         2.099966        -1.159982         3.770024
 H         1.158443        -2.217033         2.775156
 H         2.362357        -2.192139        -0.302106
