19
Iteration:  1845
 C         2.706972         1.123997        -0.186464
 C         1.666195         0.164355         0.052351
 C         0.600198        -0.350150        -0.920628
 C         0.328677        -1.271073         0.401793
 C         0.613697         0.021194         1.242749
 O         1.105758        -0.073473         2.556546
 C         1.739600        -1.323992         2.709056
 O         2.656420        -1.540014         1.613774
 C         1.947947        -1.362116         0.411209
 H         3.237746         1.190723         0.792131
 H         3.334513         0.564249        -0.946262
 H         2.379057         2.153323        -0.519882
 H        -0.189177         0.360280        -1.134881
 H         1.002328        -0.736121        -1.846217
 H        -0.430167        -2.082458         0.749261
 H        -0.151563         0.821101         1.201626
 H         2.380960        -1.368930         3.659832
 H         0.966252        -2.138114         2.634719
 H         2.472161        -1.953607        -0.341544
