19
Iteration:  3090charge 0 multiplicity 1
 C         2.576740         1.275807        -0.089102
 C         1.760869         0.061079         0.093078
 C         0.627365        -0.391350        -1.010705
 C         0.384930        -1.184728         0.296623
 C         0.727548         0.067358         1.199183
 O         1.232129         0.043510         2.539699
 C         1.710574        -1.328166         2.726417
 O         2.512945        -1.723038         1.670418
 C         1.904328        -1.498150         0.439363
 H         3.227068         1.659506         0.708129
 H         3.254750         1.232875        -0.997989
 H         1.857534         2.080506        -0.156507
 H        -0.033764         0.404374        -1.490609
 H         0.997040        -0.931084        -1.839276
 H        -0.394473        -1.877240         0.732266
 H        -0.271522         0.757366         1.201562
 H         2.417123        -1.288349         3.575915
 H         0.909240        -1.989017         2.878487
 H         2.249269        -2.185857        -0.337006
