19
Iteration:  3315
 C         2.789255         1.026682        -0.150956
 C         1.665299         0.230193         0.049320
 C         0.526749        -0.334092        -0.910783
 C         0.414247        -1.246520         0.355869
 C         0.440752         0.076989         1.198264
 O         1.120556        -0.097124         2.512397
 C         1.797674        -1.315819         2.748045
 O         2.653022        -1.587963         1.688902
 C         1.950439        -1.326661         0.371549
 H         3.464476         1.240893         0.656153
 H         3.526905         0.429214        -0.810639
 H         2.590166         2.100831        -0.548961
 H        -0.262106         0.435986        -0.851971
 H         0.768193        -0.641135        -1.978050
 H        -0.234535        -2.171899         0.492340
 H        -0.514608         0.652761         1.232636
 H         2.377272        -1.174919         3.701755
 H         0.964034        -2.144046         2.832123
 H         2.366252        -2.074277        -0.387322
