19
Iteration:  2784charge 0 multiplicity 1
 C         2.792612         1.230326        -0.012971
 C         1.715090         0.102356         0.031482
 C         0.524353        -0.419865        -0.951496
 C         0.388845        -1.278354         0.360884
 C         0.592820        -0.018278         1.222856
 O         1.142617         0.012860         2.517912
 C         1.740090        -1.269490         2.744921
 O         2.569938        -1.603558         1.601809
 C         1.948193        -1.408832         0.373814
 H         3.520763         1.002832         0.728680
 H         3.082562         1.075518        -1.094183
 H         2.285880         2.183319         0.086556
 H        -0.270516         0.352179        -1.321862
 H         0.919658        -0.933373        -1.825854
 H        -0.461054        -2.018867         0.443967
 H        -0.146651         0.741113         1.292406
 H         2.266743        -1.204557         3.682127
 H         0.926348        -2.047754         2.787716
 H         2.489762        -1.934875        -0.435669
