19
Iteration:  2713
 C         2.658461         1.298585        -0.198460
 C         1.777918         0.140856         0.050714
 C         0.598296        -0.387396        -1.012539
 C         0.367528        -1.189199         0.348270
 C         0.727406         0.103938         1.239035
 O         1.124857        -0.104488         2.592563
 C         1.707351        -1.385110         2.747239
 O         2.554780        -1.633149         1.700036
 C         1.953148        -1.466240         0.410887
 H         3.181505         1.650262         0.777699
 H         3.297858         0.996898        -1.044378
 H         1.983774         2.104076        -0.648878
 H        -0.222961         0.232427        -1.226367
 H         0.863220        -0.931226        -1.967916
 H        -0.390577        -1.897935         0.652494
 H        -0.030763         0.978173         1.037435
 H         2.309751        -1.396581         3.702112
 H         0.891646        -2.071606         2.840532
 H         2.202676        -2.232496        -0.326374
