19
Iteration:   433charge 0 multiplicity 1
 C         2.694315         1.205087        -0.186575
 C         1.697619         0.099693         0.047137
 C         0.529222        -0.429478        -0.917044
 C         0.312839        -1.190503         0.384449
 C         0.595577         0.050845         1.167151
 O         1.153164        -0.045371         2.524988
 C         1.802329        -1.229160         2.756335
 O         2.643691        -1.607575         1.676309
 C         1.953457        -1.484755         0.428164
 H         3.474617         1.028017         0.529843
 H         3.229106         1.053931        -1.169123
 H         2.405248         2.229795        -0.108758
 H        -0.114336         0.472626        -1.119959
 H         0.694844        -1.010417        -1.789071
 H        -0.548529        -1.970598         0.433893
 H        -0.222064         0.783231         1.131944
 H         2.298615        -1.238885         3.759732
 H         1.058516        -2.027135         2.761378
 H         2.389294        -2.116318        -0.309939
