19
Iteration:  4516
 C         2.896598         1.034426        -0.203156
 C         1.736029         0.105810         0.093870
 C         0.597510        -0.459555        -0.959657
 C         0.376092        -1.253173         0.410171
 C         0.610677         0.075149         1.191117
 O         0.879392        -0.060335         2.564460
 C         1.701023        -1.263253         2.714751
 O         2.589508        -1.471531         1.699230
 C         2.005568        -1.295980         0.364823
 H         3.558563         1.129395         0.628545
 H         3.450035         0.607985        -1.036457
 H         2.605835         2.012943        -0.529118
 H        -0.249243         0.187588        -1.365288
 H         1.010906        -1.052522        -1.720712
 H        -0.275372        -2.223512         0.533240
 H        -0.215618         0.809243         1.081400
 H         2.236558        -1.204739         3.729190
 H         1.104804        -2.118754         3.002457
 H         2.615289        -1.932218        -0.387031
