19
Iteration:  1463charge 0 multiplicity 1
 C         2.663168         1.202258        -0.227306
 C         1.640930         0.083213        -0.007073
 C         0.555646        -0.365823        -0.889333
 C         0.343065        -1.243483         0.317576
 C         0.644326         0.093608         1.248851
 O         1.132535        -0.110391         2.582343
 C         1.723062        -1.340634         2.715257
 O         2.707631        -1.512514         1.674000
 C         1.964348        -1.458214         0.442152
 H         3.227578         1.411984         0.666488
 H         3.519882         0.780975        -0.859294
 H         2.230125         2.181792        -0.665547
 H        -0.134489         0.450617        -1.126416
 H         0.786238        -1.025162        -1.807603
 H        -0.580494        -1.725134         0.483952
 H        -0.128105         0.896893         1.381633
 H         2.228358        -1.364933         3.679363
 H         0.937140        -2.061024         2.668799
 H         2.497080        -2.213222        -0.227963
