19
Iteration:  3410charge 0 multiplicity 1
 C         2.624261         1.290938        -0.182893
 C         1.637019         0.205012         0.006548
 C         0.676729        -0.383156        -0.844371
 C         0.465145        -1.303914         0.375788
 C         0.667082         0.078196         1.256756
 O         1.216521         0.066092         2.508216
 C         1.704668        -1.290698         2.728963
 O         2.431456        -1.847809         1.665392
 C         1.990691        -1.423328         0.332589
 H         3.347181         1.118263         0.629812
 H         3.193408         1.153685        -1.058478
 H         2.161938         2.280620         0.071061
 H        -0.197786         0.197247        -1.137237
 H         1.045683        -0.892193        -1.831041
 H        -0.054086        -2.175673         0.835401
 H        -0.275958         0.790117         1.118441
 H         2.416223        -1.166490         3.566501
 H         0.809701        -1.805979         2.886593
 H         2.434496        -2.054464        -0.447280
