19
Iteration:  4524charge 0 multiplicity 1
 C         2.859533         1.037078        -0.204055
 C         1.744747         0.121363         0.036355
 C         0.583494        -0.461929        -0.879943
 C         0.434066        -1.286368         0.374072
 C         0.597840         0.149567         1.188514
 O         0.880341        -0.111155         2.547213
 C         1.692488        -1.256193         2.737229
 O         2.600322        -1.437844         1.680965
 C         2.000233        -1.398276         0.415546
 H         3.448209         0.902103         0.721110
 H         3.471919         0.629720        -0.989043
 H         2.675872         2.089544        -0.490222
 H        -0.200567         0.132529        -1.339767
 H         1.116763        -0.903198        -1.792965
 H        -0.450799        -1.883788         0.703784
 H        -0.155377         0.981876         1.052693
 H         2.330121        -1.048036         3.626797
 H         0.969116        -2.141910         2.651108
 H         2.582004        -1.816492        -0.308499
