19
Iteration:  1788
 C         2.764448         1.209275        -0.249317
 C         1.720406         0.136307        -0.005010
 C         0.567150        -0.400130        -0.907140
 C         0.389592        -1.151067         0.417529
 C         0.670052         0.115906         1.239701
 O         0.987972        -0.178641         2.574214
 C         1.781045        -1.345390         2.759333
 O         2.628519        -1.588732         1.624142
 C         1.918628        -1.367695         0.401549
 H         3.476400         1.165941         0.538208
 H         3.254587         1.014769        -1.206497
 H         2.129517         2.166669        -0.370936
 H        -0.220240         0.242852        -1.172330
 H         0.796899        -1.058016        -1.752490
 H        -0.408494        -1.925736         0.643299
 H        -0.130811         0.817396         1.379642
 H         2.416715        -1.167497         3.678244
 H         1.132975        -2.256325         2.964885
 H         2.388161        -2.070444        -0.261675
