19
Iteration:  3751charge 0 multiplicity 1
 C         2.602015         1.295919        -0.134334
 C         1.716419         0.081492         0.078410
 C         0.685515        -0.390387        -0.882814
 C         0.376211        -1.244400         0.338251
 C         0.569864         0.039559         1.157232
 O         1.285446         0.020483         2.396836
 C         1.679451        -1.221845         2.743659
 O         2.529692        -1.777788         1.680333
 C         1.963159        -1.453076         0.494484
 H         3.461713         1.237531         0.550387
 H         2.927586         1.323654        -1.166532
 H         1.958167         2.257507        -0.039880
 H        -0.027101         0.355490        -1.153885
 H         1.111016        -0.998159        -1.692301
 H        -0.439061        -1.953631         0.563497
 H        -0.272716         0.784687         1.269720
 H         2.179776        -1.193616         3.711107
 H         0.801402        -1.997921         2.830642
 H         2.587635        -1.973968        -0.156092
