19
Iteration:  1077
 C         2.734568         1.276882        -0.217668
 C         1.697034         0.192784         0.064499
 C         0.513171        -0.395231        -0.855535
 C         0.403485        -1.262796         0.423439
 C         0.645849        -0.026587         1.211695
 O         1.219755        -0.030918         2.474369
 C         1.733771        -1.259695         2.732046
 O         2.541852        -1.678817         1.652415
 C         1.917124        -1.453237         0.401147
 H         2.945508         1.803904         0.767299
 H         3.564423         1.133727        -0.895303
 H         2.124640         2.030695        -0.692174
 H        -0.406657         0.172580        -1.125365
 H         0.923830        -0.981893        -1.662504
 H        -0.345416        -1.982826         0.593761
 H        -0.153295         0.705732         1.163697
 H         2.360484        -1.286683         3.677553
 H         0.983712        -2.000518         2.896481
 H         2.516864        -2.089498        -0.374101
