19
Iteration:  4055
 C         2.716681         1.224764        -0.209209
 C         1.803096         0.105525         0.071608
 C         0.603053        -0.353756        -0.932646
 C         0.440123        -1.331225         0.352496
 C         0.561471         0.064320         1.205485
 O         1.093526         0.039387         2.479202
 C         1.715836        -1.311163         2.729251
 O         2.556137        -1.668710         1.741762
 C         1.985507        -1.417782         0.464460
 H         3.135233         1.531889         0.773358
 H         3.553134         0.906778        -0.815195
 H         2.219141         2.055299        -0.790087
 H        -0.209669         0.343457        -1.035542
 H         0.833160        -0.820146        -1.956552
 H        -0.433386        -2.030523         0.330749
 H        -0.256867         0.796595         1.116977
 H         2.141011        -1.367506         3.740568
 H         0.787623        -1.925258         2.680985
 H         2.367631        -2.172178        -0.259309
