19
Iteration:  3858charge 0 multiplicity 1
 C         2.886354         1.151524        -0.219818
 C         1.717346         0.185810         0.015709
 C         0.507496        -0.421122        -0.878332
 C         0.446003        -1.309460         0.396306
 C         0.614090         0.093002         1.196864
 O         1.035000        -0.104554         2.581541
 C         1.670972        -1.317175         2.689636
 O         2.610686        -1.558550         1.657117
 C         1.944385        -1.298606         0.420772
 H         3.278833         1.518880         0.726550
 H         3.606917         0.541562        -0.723498
 H         2.629290         2.111219        -0.754508
 H        -0.387717         0.061095        -1.170426
 H         0.821428        -0.920988        -1.895017
 H        -0.386114        -1.974613         0.738051
 H        -0.248654         0.682319         1.056908
 H         2.111590        -1.127733         3.694181
 H         1.025669        -2.205336         2.877306
 H         2.215070        -2.062634        -0.325831
