19
Iteration:  3124charge 0 multiplicity 1
 C         2.796592         1.175165        -0.078693
 C         1.688136         0.163886         0.097251
 C         0.477011        -0.399633        -0.892974
 C         0.469358        -1.281631         0.383221
 C         0.589645         0.066247         1.170561
 O         1.142133        -0.020637         2.410881
 C         1.719302        -1.314313         2.674698
 O         2.563041        -1.717394         1.657840
 C         1.936377        -1.302534         0.426206
 H         3.475638         1.159176         0.818344
 H         3.442101         0.989225        -0.982460
 H         2.392046         2.126040        -0.296467
 H        -0.303362         0.389296        -0.993641
 H         0.864477        -0.867708        -1.737228
 H        -0.261772        -2.072114         0.683507
 H        -0.366825         0.776042         1.301342
 H         2.332395        -1.086763         3.562367
 H         0.968388        -1.973138         2.961936
 H         2.492398        -1.903558        -0.292755
