19
Iteration:   515charge 0 multiplicity 1
 C         2.760899         1.193702        -0.258624
 C         1.665931         0.095851         0.025142
 C         0.557155        -0.338638        -0.926536
 C         0.388135        -1.181424         0.365814
 C         0.557817        -0.012808         1.225378
 O         1.038858        -0.066634         2.565040
 C         1.927302        -1.198231         2.805494
 O         2.567619        -1.715396         1.651750
 C         1.940770        -1.422704         0.415416
 H         3.107658         1.660607         0.726556
 H         3.608905         0.880457        -0.854090
 H         2.153175         2.007166        -0.755282
 H        -0.375037         0.164603        -1.108849
 H         0.860735        -0.854969        -1.888131
 H        -0.471065        -1.812648         0.349157
 H        -0.157334         0.839532         1.297503
 H         2.651256        -0.860235         3.559526
 H         1.266155        -2.034417         3.242192
 H         2.508827        -2.095497        -0.366507
