19
Iteration:  4799charge 0 multiplicity 1
 C         2.689288         1.278509        -0.201659
 C         1.731382         0.121989         0.012714
 C         0.665048        -0.478807        -0.970570
 C         0.350741        -1.225609         0.356474
 C         0.709933         0.103487         1.125449
 O         1.136779        -0.010624         2.493267
 C         1.658153        -1.302243         2.800249
 O         2.515121        -1.653232         1.798647
 C         1.984474        -1.476404         0.422274
 H         3.297538         1.234304         0.717288
 H         3.343274         1.234142        -1.108860
 H         2.031082         2.192045        -0.201322
 H        -0.132435         0.248369        -1.344298
 H         0.859510        -1.168485        -1.773876
 H        -0.434385        -2.020891         0.485666
 H        -0.042989         0.921026         0.986975
 H         2.158649        -1.174776         3.831094
 H         0.908192        -1.994646         3.036446
 H         2.550956        -2.084047        -0.342654
