19
Iteration:   780charge 0 multiplicity 1
 C         2.740136         1.205404        -0.263372
 C         1.671402         0.171275         0.030681
 C         0.556448        -0.386933        -0.839447
 C         0.417422        -1.310239         0.394472
 C         0.626904        -0.000259         1.227451
 O         1.159590        -0.032689         2.542883
 C         1.766632        -1.218153         2.757303
 O         2.528678        -1.674386         1.642441
 C         1.929202        -1.375761         0.398822
 H         3.524354         1.138711         0.486440
 H         3.214462         0.998639        -1.295444
 H         2.363978         2.231194        -0.235670
 H        -0.177626         0.372073        -1.156674
 H         0.954698        -0.894616        -1.675821
 H        -0.203589        -2.131169         0.499497
 H        -0.254501         0.637134         1.293659
 H         2.373801        -1.103902         3.659397
 H         0.918041        -1.905773         2.989337
 H         2.212195        -2.036734        -0.504566
