19
Iteration:    70
 C         2.650182         1.198241        -0.280224
 C         1.729244         0.126577         0.035905
 C         0.607001        -0.535205        -0.813361
 C         0.393374        -1.192977         0.542125
 C         0.623143         0.209104         1.211280
 O         1.212746        -0.015127         2.531210
 C         1.564635        -1.398627         2.550121
 O         2.670977        -1.599962         1.668971
 C         1.990078        -1.397327         0.493964
 H         3.310375         1.421101         0.619934
 H         3.305073         0.956559        -1.134247
 H         2.092685         2.155743        -0.597773
 H        -0.199987         0.135348        -1.129603
 H         0.939850        -1.150490        -1.710143
 H        -0.554434        -1.987187         0.662394
 H        -0.247110         0.892461         1.323623
 H         1.961917        -1.670669         3.627651
 H         0.714056        -1.968369         2.055005
 H         2.294087        -2.038859        -0.296474
