19
Iteration:  4970charge 0 multiplicity 1
 C         2.732847         1.271960        -0.212260
 C         1.787749         0.119794         0.046189
 C         0.632862        -0.427545        -0.912867
 C         0.356449        -1.194107         0.434693
 C         0.603528         0.090617         1.064952
 O         1.109863         0.012812         2.423933
 C         1.615262        -1.282508         2.880865
 O         2.576371        -1.778873         1.719235
 C         2.018061        -1.455887         0.458650
 H         3.514328         1.343202         0.571335
 H         3.113191         1.316769        -1.266552
 H         2.122221         2.187622        -0.034276
 H        -0.085239         0.295205        -1.273985
 H         0.967892        -1.044478        -1.888748
 H        -0.434952        -1.886627         0.660313
 H        -0.224511         0.829053         0.956891
 H         2.288798        -1.186231         3.713023
 H         0.851568        -1.972987         3.031901
 H         2.384680        -2.080474        -0.387763
