19
Iteration:  1899charge 0 multiplicity 1
 C         2.590732         1.253222        -0.084140
 C         1.693085         0.167289         0.054478
 C         0.613368        -0.321834        -0.862043
 C         0.419652        -1.300854         0.271140
 C         0.571357         0.069041         1.200302
 O         1.242243         0.030852         2.461950
 C         1.837871        -1.225834         2.773221
 O         2.483142        -1.823528         1.642497
 C         1.943570        -1.499367         0.405735
 H         3.120847         1.343908         0.853673
 H         3.265387         1.261584        -0.941637
 H         2.020936         2.206319        -0.229603
 H        -0.251709         0.225745        -1.163981
 H         0.981359        -0.801073        -1.757986
 H        -0.335458        -2.174818         0.354831
 H        -0.132835         0.902138         1.110568
 H         2.635300        -1.020959         3.581196
 H         1.051792        -1.896913         3.282209
 H         2.439918        -2.052847        -0.374297
