19
Iteration:    28charge 0 multiplicity 1
 C         2.742808         1.180798        -0.237636
 C         1.717272         0.093454         0.054262
 C         0.563595        -0.318237        -0.873664
 C         0.425073        -1.269785         0.274895
 C         0.547177        -0.000558         1.148733
 O         1.041741         0.001040         2.582208
 C         1.956730        -1.143825         2.843006
 O         2.485424        -1.823829         1.634640
 C         1.960353        -1.407602         0.435391
 H         3.317291         1.406927         0.693706
 H         3.397913         1.020122        -1.125924
 H         2.116609         2.084125        -0.487737
 H        -0.290323         0.392070        -0.874691
 H         0.688175        -0.729775        -1.895683
 H        -0.375229        -2.063578         0.430623
 H        -0.234814         0.783027         1.120786
 H         2.707400        -0.550824         3.378878
 H         1.220817        -1.787392         3.388323
 H         2.494062        -1.995225        -0.342537
