19
Iteration:  4890charge 0 multiplicity 1
 C         2.796639         1.131807        -0.147502
 C         1.763628         0.102896         0.069609
 C         0.601982        -0.483753        -0.882392
 C         0.353678        -1.228112         0.449361
 C         0.627414         0.138188         1.109561
 O         0.926573        -0.040756         2.548962
 C         1.639270        -1.180648         2.690989
 O         2.716874        -1.637125         1.618953
 C         1.988221        -1.420844         0.423462
 H         3.325540         1.372419         0.819094
 H         3.667881         0.813808        -0.751573
 H         2.493016         2.097472        -0.590656
 H        -0.187902         0.287763        -1.135070
 H         0.759458        -1.182824        -1.706201
 H        -0.494091        -1.971483         0.620006
 H        -0.097302         0.945331         1.051470
 H         2.199206        -1.229653         3.631452
 H         0.976236        -1.962122         2.709297
 H         2.248237        -2.021158        -0.396858
