19
Iteration:  4555
 C         2.849127         1.128334        -0.151586
 C         1.756191        -0.007567         0.022363
 C         0.544313        -0.433299        -0.953394
 C         0.357068        -1.283252         0.332961
 C         0.539462         0.050199         1.173021
 O         1.016472        -0.002776         2.488951
 C         1.689040        -1.273455         2.747567
 O         2.623094        -1.488884         1.779804
 C         1.985350        -1.387772         0.389072
 H         3.689867         1.193743         0.647100
 H         3.373435         0.887715        -1.102325
 H         2.320095         2.146747        -0.076935
 H        -0.076725         0.411268        -1.203845
 H         1.068542        -1.115293        -1.762297
 H        -0.400184        -1.912729         0.677790
 H        -0.150404         0.927462         1.160267
 H         2.195248        -1.196718         3.692072
 H         0.844489        -2.053498         2.742141
 H         2.686682        -1.921296        -0.299496
