19
Iteration:  2916charge 0 multiplicity 1
 C         2.649808         1.289033        -0.077743
 C         1.752970         0.164257        -0.044789
 C         0.633272        -0.460925        -0.938132
 C         0.374211        -1.316119         0.413022
 C         0.647431         0.102896         1.172499
 O         1.231191         0.057684         2.530461
 C         1.659632        -1.345489         2.709239
 O         2.489882        -1.708014         1.663006
 C         1.977554        -1.426139         0.419370
 H         3.220952         1.346924         0.880316
 H         3.456270         1.398690        -0.903019
 H         2.016426         2.155232        -0.126040
 H        -0.244768         0.262535        -1.126579
 H         0.841008        -1.054311        -1.792527
 H        -0.466569        -2.108192         0.515272
 H        -0.115471         0.880078         1.094157
 H         2.393905        -1.373237         3.559884
 H         0.953292        -2.115216         2.810146
 H         2.508132        -2.060388        -0.355768
