19
Iteration:  2572
 C         2.678902         1.280127        -0.089391
 C         1.684789         0.186105         0.093420
 C         0.535078        -0.376204        -0.906231
 C         0.367663        -1.374418         0.249692
 C         0.585943        -0.014292         1.167747
 O         1.322960         0.011880         2.418381
 C         1.718519        -1.269784         2.729753
 O         2.460479        -1.695449         1.717783
 C         2.008874        -1.408744         0.459312
 H         3.586057         1.180779         0.630555
 H         3.127906         1.361398        -1.094270
 H         2.567840         2.369888         0.131465
 H        -0.217240         0.397147        -1.042855
 H         0.843092        -0.961329        -1.907243
 H        -0.376980        -2.118534         0.349406
 H        -0.396288         0.581219         1.324288
 H         2.332629        -1.232030         3.705516
 H         0.829715        -1.925836         3.028457
 H         2.648160        -1.975005        -0.265660
