19
Iteration:  4810charge 0 multiplicity 1
 C         2.746435         1.250818        -0.215570
 C         1.763019         0.067658         0.007919
 C         0.644193        -0.461452        -0.919923
 C         0.414359        -1.258071         0.399659
 C         0.705710         0.069017         1.159705
 O         1.015111        -0.027840         2.528278
 C         1.647667        -1.239743         2.750053
 O         2.536592        -1.660308         1.717625
 C         1.937500        -1.403683         0.418898
 H         3.318277         1.473020         0.705197
 H         3.491333         1.126218        -1.048112
 H         2.213969         2.236483        -0.404199
 H        -0.257708         0.064396        -1.345976
 H         1.260729        -0.959334        -1.621093
 H        -0.486317        -1.860879         0.687454
 H        -0.036046         0.897681         1.191586
 H         2.451465        -1.093681         3.517029
 H         0.919005        -1.958624         2.874312
 H         2.422651        -2.195795        -0.204429
