19
Iteration:  3464charge 0 multiplicity 1
 C         2.710207         1.130702        -0.102555
 C         1.691487         0.125885         0.051244
 C         0.557099        -0.361163        -0.856355
 C         0.365870        -1.235207         0.324560
 C         0.671119         0.109892         1.170027
 O         1.098095        -0.064078         2.594309
 C         1.748830        -1.238850         2.729347
 O         2.620537        -1.588447         1.573808
 C         1.955684        -1.489665         0.413517
 H         3.307906         1.438296         0.796353
 H         3.440578         0.752705        -0.804103
 H         2.322306         2.110997        -0.548521
 H        -0.268681         0.232514        -1.279781
 H         0.870902        -0.980610        -1.766841
 H        -0.524503        -1.864888         0.526838
 H        -0.245374         0.772496         1.122699
 H         2.321933        -1.277490         3.688916
 H         0.937285        -2.081491         2.680229
 H         2.374995        -2.141685        -0.366999
