19
Iteration:  1974charge 0 multiplicity 1
 C         2.729280         1.132003        -0.245821
 C         1.757272         0.121702         0.011684
 C         0.550292        -0.389908        -0.830192
 C         0.285227        -1.168825         0.385575
 C         0.661327         0.074135         1.281496
 O         1.024960        -0.155294         2.598285
 C         1.711658        -1.386182         2.682627
 O         2.696430        -1.457018         1.636488
 C         1.987573        -1.437979         0.393607
 H         3.399505         1.183603         0.605737
 H         3.425102         0.933744        -1.060571
 H         2.192028         2.111106        -0.419376
 H        -0.196423         0.435776        -1.019899
 H         0.904148        -0.767377        -1.872372
 H        -0.649303        -1.834065         0.460592
 H        -0.053159         0.913814         1.129854
 H         2.313762        -1.191026         3.647586
 H         1.003083        -2.185077         2.508536
 H         2.365367        -2.126279        -0.383912
