19
Iteration:  2961
 C         2.779809         1.155890        -0.140419
 C         1.706586         0.113563         0.051872
 C         0.584089        -0.384869        -0.949256
 C         0.380946        -1.284069         0.288578
 C         0.587842         0.028462         1.228894
 O         1.061466        -0.037674         2.553505
 C         1.817190        -1.224106         2.777213
 O         2.537274        -1.631060         1.650481
 C         1.913999        -1.347745         0.413251
 H         3.405294         0.901638         0.787903
 H         3.416752         1.056294        -1.043837
 H         2.360915         2.146801        -0.086552
 H        -0.171233         0.433712        -1.142735
 H         1.000944        -0.823722        -1.855161
 H        -0.221953        -2.258051         0.352952
 H        -0.217965         0.694174         1.173977
 H         2.569053        -1.217063         3.603790
 H         1.139959        -2.030907         2.879405
 H         2.322597        -1.869821        -0.479495
