19
Iteration:  3227charge 0 multiplicity 1
 C         2.695304         1.264488        -0.230283
 C         1.665370         0.157802         0.096003
 C         0.685770        -0.340040        -0.827175
 C         0.382706        -1.290598         0.355158
 C         0.695888        -0.022309         1.258993
 O         1.205632         0.009826         2.522817
 C         1.685761        -1.270206         2.682964
 O         2.480846        -1.726219         1.679015
 C         1.929441        -1.376256         0.355562
 H         3.373498         1.289787         0.593393
 H         3.179540         0.979860        -1.190513
 H         2.001261         2.195263        -0.228203
 H        -0.204119         0.154923        -1.159746
 H         1.158861        -0.841068        -1.754211
 H        -0.347992        -2.128514         0.374226
 H        -0.108324         0.631426         1.404240
 H         2.180587        -1.409504         3.636636
 H         0.788161        -1.792144         2.552880
 H         2.550288        -2.074005        -0.255574
