19
Iteration:  3802
 C         2.770878         1.195358        -0.132826
 C         1.736735         0.094642         0.041935
 C         0.608055        -0.362815        -0.881328
 C         0.387977        -1.293178         0.406830
 C         0.608294         0.052014         1.165426
 O         1.020046        -0.026751         2.477728
 C         1.794539        -1.286515         2.711031
 O         2.588575        -1.624267         1.693469
 C         1.909597        -1.377668         0.374399
 H         3.450835         1.094745         0.673516
 H         3.276763         0.975263        -1.078941
 H         2.249656         2.125014        -0.262432
 H        -0.217108         0.301510        -0.950092
 H         0.885962        -0.968607        -1.810760
 H        -0.434258        -2.020700         0.532849
 H        -0.155000         0.763242         1.087505
 H         2.367656        -0.923989         3.563028
 H         1.056068        -2.039096         3.001815
 H         2.423393        -2.135068        -0.228488
