19
Iteration:   907
 C         2.669711         1.301014        -0.260102
 C         1.732142         0.107751        -0.004309
 C         0.521923        -0.472092        -0.922420
 C         0.256161        -1.155514         0.404314
 C         0.721107         0.086668         1.173478
 O         1.025876        -0.040900         2.677251
 C         1.785694        -1.283539         2.775271
 O         2.620301        -1.724433         1.619714
 C         2.076032        -1.432375         0.389485
 H         3.091725         1.507320         0.726253
 H         3.512871         1.043887        -0.936995
 H         2.241981         2.236273        -0.741870
 H        -0.047435         0.352857        -1.404512
 H         0.999152        -1.206335        -1.732128
 H        -0.677433        -1.829928         0.803747
 H        -0.123864         0.799134         1.209286
 H         2.517328        -1.086116         3.548096
 H         1.070506        -2.208492         2.899664
 H         2.358183        -2.171684        -0.293783
