19
Iteration:  2486charge 0 multiplicity 1
 C         2.875731         1.109414        -0.289006
 C         1.675780         0.158014         0.168490
 C         0.502797        -0.316693        -0.827396
 C         0.454506        -1.254644         0.346608
 C         0.576609         0.040920         1.262273
 O         0.942761        -0.100707         2.588507
 C         1.726429        -1.293321         2.725136
 O         2.624284        -1.628013         1.581075
 C         2.045414        -1.255677         0.371351
 H         3.429295         1.428329         0.602035
 H         3.545973         0.415418        -0.871353
 H         2.339431         1.789395        -1.004363
 H        -0.444781         0.232344        -0.850584
 H         0.780895        -0.771292        -1.879013
 H        -0.242937        -2.069690         0.566344
 H        -0.335646         0.726490         1.107030
 H         2.403893        -1.275058         3.642920
 H         1.069670        -2.141749         2.856563
 H         2.527298        -1.908583        -0.473792
