19
Iteration:   634
 C         2.747436         1.172035        -0.102771
 C         1.660046         0.068410         0.050037
 C         0.583327        -0.399519        -0.972743
 C         0.305850        -1.231092         0.429605
 C         0.574102         0.025124         1.201716
 O         1.182695        -0.044668         2.447773
 C         1.841988        -1.236312         2.811365
 O         2.612724        -1.577546         1.596503
 C         1.849982        -1.432597         0.438374
 H         3.616090         1.192035         0.633151
 H         3.167500         1.109415        -1.090936
 H         2.256488         2.179024         0.053612
 H        -0.196712         0.313850        -1.262471
 H         0.844016        -1.058408        -1.912042
 H        -0.486987        -2.135501         0.422029
 H        -0.155614         0.867802         1.161526
 H         2.550215        -0.856935         3.573862
 H         1.179216        -2.007401         3.296141
 H         2.183513        -2.223975        -0.359339
