19
Iteration:  1554
 C         2.638258         1.326708        -0.090167
 C         1.716279         0.112344         0.033745
 C         0.599477        -0.392474        -0.884535
 C         0.399506        -1.332539         0.413138
 C         0.615821         0.016826         1.183169
 O         1.171903         0.071523         2.461978
 C         1.763220        -1.282957         2.730599
 O         2.621989        -1.721809         1.640626
 C         1.861888        -1.465046         0.378473
 H         3.421094         1.393143         0.748671
 H         3.297208         1.273310        -1.049068
 H         2.111478         2.252893        -0.155188
 H        -0.259695         0.294741        -1.106673
 H         0.958715        -0.864834        -1.788255
 H        -0.310831        -2.060493         0.803363
 H        -0.316091         0.679376         1.221182
 H         2.404397        -1.248184         3.633750
 H         0.969579        -1.985218         2.825761
 H         2.328146        -2.109561        -0.457573
