19
Iteration:  4507
 C         2.923217         1.058477        -0.216336
 C         1.687138         0.163779         0.062506
 C         0.643744        -0.452240        -0.971242
 C         0.400195        -1.240015         0.332784
 C         0.549566        -0.034993         1.183838
 O         0.930283        -0.018524         2.575533
 C         1.678408        -1.263107         2.788660
 O         2.617078        -1.534960         1.690858
 C         1.953226        -1.277776         0.436223
 H         3.630544         1.371482         0.552362
 H         3.491046         0.567558        -1.070002
 H         2.442914         1.988945        -0.514031
 H        -0.155138         0.340531        -1.132800
 H         0.885847        -1.157122        -1.716857
 H        -0.169971        -2.212800         0.450899
 H        -0.229651         0.709922         1.163736
 H         2.398252        -0.982545         3.593012
 H         0.923013        -2.068118         2.823144
 H         2.428132        -2.126815        -0.309898
