19
Iteration:  1398charge 0 multiplicity 1
 C         2.657246         1.283706        -0.159121
 C         1.720106         0.083576         0.049089
 C         0.601746        -0.403191        -0.967053
 C         0.341520        -1.336704         0.386541
 C         0.627305         0.067414         1.158788
 O         1.187831        -0.092530         2.500116
 C         1.819230        -1.255030         2.767497
 O         2.523477        -1.614318         1.655222
 C         1.912027        -1.392147         0.490867
 H         3.575691         1.186962         0.371705
 H         2.921841         1.275742        -1.247031
 H         2.051400         2.189690         0.171589
 H         0.171660         0.571612        -1.097011
 H         0.735542        -0.937293        -1.936496
 H        -0.406036        -2.045428         0.535867
 H        -0.114836         0.911485         1.108764
 H         2.454725        -1.025535         3.632679
 H         1.274769        -2.234510         3.071510
 H         2.240488        -2.141430        -0.322083
