19
Iteration:  4775
 C         2.660762         1.248818        -0.174854
 C         1.723090         0.088137         0.091267
 C         0.690276        -0.387739        -0.946398
 C         0.409947        -1.320553         0.393667
 C         0.594135         0.048607         1.114530
 O         1.234158         0.085093         2.444630
 C         1.596165        -1.191180         2.661801
 O         2.543877        -1.771926         1.788687
 C         2.004662        -1.434909         0.501082
 H         3.470906         1.190925         0.564094
 H         3.049732         1.381439        -1.205915
 H         1.930081         2.034228         0.084037
 H        -0.199308         0.153676        -1.186860
 H         1.097741        -0.862537        -1.850487
 H        -0.356727        -2.080124         0.505295
 H        -0.288050         0.740916         1.027145
 H         2.042233        -1.236661         3.672816
 H         0.752824        -1.803554         2.846115
 H         2.348327        -2.127097        -0.385555
