19
Iteration:  4093
 C         2.699421         1.347248        -0.142407
 C         1.743909         0.093126         0.054979
 C         0.687008        -0.568164        -0.982253
 C         0.416208        -1.229347         0.360589
 C         0.651189         0.091082         1.173597
 O         1.198813         0.013319         2.455876
 C         1.647421        -1.303724         2.656764
 O         2.462600        -1.735616         1.758069
 C         1.923273        -1.342680         0.492715
 H         3.249783         1.603986         0.759602
 H         3.438508         1.278661        -0.993474
 H         2.068256         2.200633        -0.287929
 H        -0.287954         0.031778        -1.161050
 H         0.963795        -1.269050        -1.738071
 H        -0.284200        -2.021642         0.636532
 H        -0.002949         0.980157         1.152770
 H         2.303526        -1.277831         3.589407
 H         0.787179        -1.986518         2.949936
 H         2.397794        -2.019311        -0.206487
