19
Iteration:  2690
 C         2.794660         1.175979        -0.271050
 C         1.706246         0.183178        -0.018749
 C         0.570304        -0.376404        -0.803033
 C         0.382765        -1.258247         0.419871
 C         0.603165         0.108635         1.241470
 O         1.035644        -0.104388         2.552845
 C         1.683070        -1.417562         2.696512
 O         2.630160        -1.638859         1.653792
 C         2.023617        -1.259289         0.431566
 H         3.195902         1.473330         0.796506
 H         3.593726         0.767033        -0.898178
 H         2.473039         2.100762        -0.818109
 H        -0.245587         0.277893        -1.045630
 H         0.770116        -0.991793        -1.713662
 H        -0.410858        -1.995066         0.618314
 H        -0.279408         0.816442         0.986663
 H         2.158104        -1.497428         3.714619
 H         0.884087        -2.114573         2.618045
 H         2.479763        -1.802375        -0.425619
