19
Iteration:  1908charge 0 multiplicity 1
 C         2.549797         1.195296        -0.085491
 C         1.623588         0.079598         0.123536
 C         0.623374        -0.324109        -0.979517
 C         0.430124        -1.269338         0.276430
 C         0.588993         0.033417         1.176230
 O         1.292954         0.084896         2.496208
 C         1.815285        -1.234333         2.785939
 O         2.473883        -1.823768         1.650906
 C         1.971776        -1.388731         0.412486
 H         3.247622         1.277568         0.665668
 H         3.232522         1.008031        -0.857849
 H         2.044052         2.199762        -0.170440
 H        -0.244546         0.306351        -0.943025
 H         1.100219        -0.565527        -1.973237
 H        -0.311921        -2.093029         0.314364
 H        -0.312776         0.587543         1.359503
 H         2.674346        -1.117083         3.496147
 H         0.985747        -1.916857         3.049825
 H         2.517056        -1.953554        -0.318412
