19
Iteration:  1724
 C         2.762166         1.349670        -0.072263
 C         1.672089         0.244291         0.017301
 C         0.419723        -0.459363        -0.842253
 C         0.510186        -1.425514         0.290191
 C         0.651967         0.026038         1.187377
 O         1.281671         0.073103         2.463435
 C         1.678557        -1.263308         2.760303
 O         2.461263        -1.780193         1.660780
 C         1.992187        -1.400335         0.369557
 H         3.397248         1.358967         0.812804
 H         3.468193         1.086529        -0.897363
 H         2.336724         2.411748        -0.253365
 H        -0.441592         0.140538        -0.803709
 H         0.466412        -0.956893        -1.810743
 H        -0.411214        -2.001135         0.694894
 H        -0.316155         0.493558         1.126575
 H         2.383895        -1.277972         3.652465
 H         0.864423        -1.898227         2.839830
 H         2.563579        -1.886217        -0.382519
