19
Iteration:   845charge 0 multiplicity 1
 C         2.740106         1.077780        -0.113021
 C         1.667850         0.122610         0.040561
 C         0.438667        -0.481067        -0.887516
 C         0.448102        -1.291564         0.377230
 C         0.668432         0.152387         1.185013
 O         1.108689         0.017427         2.545621
 C         1.763459        -1.270878         2.700167
 O         2.575076        -1.613625         1.616755
 C         1.962471        -1.304836         0.374214
 H         3.340208         1.146188         0.765128
 H         3.378331         0.770744        -1.006890
 H         2.310722         2.054257        -0.192391
 H        -0.273087         0.348774        -1.047310
 H         0.753199        -0.959400        -1.764702
 H        -0.020137        -2.206613         0.651078
 H        -0.176179         0.816834         1.167673
 H         2.429413        -1.293287         3.545823
 H         1.049047        -2.063826         2.968176
 H         2.432882        -2.104089        -0.313464
