19
Iteration:  3686charge 0 multiplicity 1
 C         2.813784         1.058460        -0.275449
 C         1.685349         0.189543         0.158568
 C         0.538403        -0.306185        -0.886555
 C         0.390906        -1.354261         0.329427
 C         0.571708         0.100487         1.210863
 O         1.039315        -0.090922         2.541320
 C         1.766427        -1.324344         2.683496
 O         2.632976        -1.550997         1.707662
 C         1.976328        -1.324336         0.445841
 H         3.366116         1.396085         0.610509
 H         3.523483         0.448768        -0.807335
 H         2.461413         1.910598        -0.918962
 H        -0.362049         0.254949        -1.068272
 H         0.900209        -0.799037        -1.790841
 H        -0.437759        -2.086211         0.310434
 H        -0.391453         0.714345         1.200703
 H         2.261903        -1.158913         3.623329
 H         0.992871        -2.101982         2.721796
 H         2.450483        -1.759537        -0.358370
