19
Iteration:  1857
 C         2.681224         1.187247        -0.130833
 C         1.641918         0.089489        -0.009838
 C         0.565597        -0.439125        -0.910396
 C         0.402739        -1.174218         0.438428
 C         0.717518         0.156220         1.193519
 O         1.032859        -0.120987         2.556459
 C         1.798155        -1.313789         2.697662
 O         2.635178        -1.645040         1.630669
 C         1.919609        -1.353562         0.383111
 H         3.216589         1.348099         0.872307
 H         3.580884         1.086266        -0.841385
 H         2.255471         2.183317        -0.438710
 H        -0.223355         0.276637        -1.205178
 H         0.883514        -1.109178        -1.701160
 H        -0.386776        -2.013274         0.439889
 H        -0.078943         0.940404         1.286617
 H         2.392915        -1.131483         3.652964
 H         1.072911        -2.136613         2.911294
 H         2.311918        -2.000392        -0.417733
