19
Iteration:  4612charge 0 multiplicity 1
 C         2.598812         1.342211        -0.124837
 C         1.771672         0.038367         0.018874
 C         0.683785        -0.498897        -0.917314
 C         0.389245        -1.238464         0.282065
 C         0.680382         0.059974         1.068581
 O         1.170787         0.041061         2.450864
 C         1.701381        -1.221462         2.827143
 O         2.487411        -1.759079         1.761891
 C         1.943608        -1.423407         0.490346
 H         3.345504         1.430987         0.702248
 H         3.261807         1.232055        -1.018215
 H         2.090778         2.310815        -0.435501
 H        -0.134778         0.171214        -1.328397
 H         1.089019        -1.138123        -1.791214
 H        -0.477672        -1.960860         0.380213
 H         0.053950         1.014408         1.138042
 H         2.233505        -1.279196         3.845272
 H         0.852997        -1.901923         3.064012
 H         2.364227        -2.078245        -0.204223
