19
Iteration:  2140charge 0 multiplicity 1
 C         2.756931         1.194829        -0.285519
 C         1.743942         0.088730         0.118645
 C         0.672087        -0.253554        -0.901201
 C         0.341980        -1.232719         0.429296
 C         0.555379         0.019741         1.203078
 O         1.008713        -0.127558         2.596094
 C         1.823253        -1.361922         2.731132
 O         2.640531        -1.523654         1.627967
 C         1.882339        -1.445608         0.370139
 H         3.362649         1.498366         0.554500
 H         3.364615         0.636357        -1.010158
 H         2.093069         1.946672        -0.646994
 H        -0.198369         0.519515        -0.965972
 H         1.001914        -0.647648        -1.886466
 H        -0.471119        -2.002272         0.628616
 H        -0.217652         0.793788         1.153656
 H         2.388107        -1.216617         3.624402
 H         1.099440        -2.212298         2.889336
 H         2.315126        -1.993374        -0.414943
