19
Iteration:   893charge 0 multiplicity 1
 C         2.668234         1.152028        -0.221928
 C         1.678879         0.083092         0.022809
 C         0.594254        -0.423432        -0.897496
 C         0.353538        -1.224501         0.393076
 C         0.658846         0.118841         1.206361
 O         1.125337        -0.079372         2.553698
 C         1.777168        -1.285218         2.763100
 O         2.587653        -1.619758         1.650951
 C         1.935141        -1.358583         0.391043
 H         3.096031         1.585174         0.754089
 H         3.482945         0.865526        -0.853845
 H         2.103590         2.038736        -0.642819
 H        -0.277804         0.189968        -1.104820
 H         0.930673        -1.011457        -1.798539
 H        -0.465198        -1.924377         0.489018
 H         0.045956         1.077504         1.220515
 H         2.466848        -1.329359         3.672346
 H         1.082077        -2.126196         2.982292
 H         2.569751        -1.910734        -0.381590
