19
Iteration:  3523charge 0 multiplicity 1
 C         2.753964         1.084753        -0.223105
 C         1.730882         0.085969         0.056765
 C         0.591914        -0.319606        -0.871222
 C         0.343914        -1.285162         0.326404
 C         0.620430         0.133377         1.243054
 O         1.025960        -0.063974         2.603460
 C         1.751719        -1.360574         2.785770
 O         2.650912        -1.526403         1.611144
 C         1.913560        -1.365024         0.382673
 H         3.484706         1.307772         0.535296
 H         3.331685         0.744391        -1.142334
 H         2.244073         2.018228        -0.593164
 H        -0.172875         0.451152        -1.042029
 H         0.954065        -0.970154        -1.725983
 H        -0.393501        -2.115241         0.238562
 H        -0.189198         0.969365         1.243750
 H         2.336928        -1.414288         3.720164
 H         0.977887        -2.188704         2.686104
 H         2.553932        -2.019517        -0.258611
