19
Iteration:  3589charge 0 multiplicity 1
 C         2.665610         1.262052        -0.088459
 C         1.651625         0.191741         0.074062
 C         0.625967        -0.387848        -0.903100
 C         0.430261        -1.336767         0.367802
 C         0.636970        -0.012901         1.153903
 O         1.331306         0.084340         2.474901
 C         1.638416        -1.258131         2.759213
 O         2.481112        -1.761491         1.696738
 C         1.920896        -1.444085         0.368821
 H         3.574895         1.353061         0.477938
 H         2.888424         1.290273        -1.182809
 H         2.184825         2.195274        -0.125170
 H        -0.126854         0.358330        -1.305678
 H         1.114721        -1.024881        -1.686080
 H        -0.161424        -2.210983         0.563079
 H        -0.282537         0.660715         1.110390
 H         2.264953        -1.229303         3.657750
 H         0.720487        -1.904661         2.990588
 H         2.426853        -1.807980        -0.536415
