19
Iteration:  2122
 C         2.703134         1.141723        -0.222183
 C         1.650984         0.162076         0.019933
 C         0.510577        -0.320624        -0.876475
 C         0.392037        -1.249559         0.259011
 C         0.659532         0.043799         1.273657
 O         1.079358        -0.098810         2.585981
 C         1.763363        -1.267548         2.763245
 O         2.587493        -1.685666         1.642629
 C         2.015681        -1.312614         0.426203
 H         3.333876         1.388416         0.688567
 H         3.478839         0.741857        -0.891200
 H         2.333205         2.134294        -0.535093
 H        -0.236759         0.408881        -1.162581
 H         0.858819        -0.856612        -1.732015
 H        -0.332170        -2.062529         0.332545
 H        -0.140750         0.782985         1.195415
 H         2.488004        -1.276288         3.594170
 H         1.123085        -2.167310         3.008010
 H         2.512584        -1.893180        -0.379792
