19
Iteration:  2907
 C         2.660524         1.350955        -0.105717
 C         1.683807         0.076663        -0.011343
 C         0.634633        -0.492702        -0.968429
 C         0.399894        -1.170217         0.426354
 C         0.710719         0.095293         1.161822
 O         1.203867         0.048841         2.578110
 C         1.639115        -1.414626         2.771442
 O         2.512458        -1.666057         1.648944
 C         2.016320        -1.456587         0.365426
 H         3.068217         1.331403         0.995789
 H         3.350429         1.243901        -0.990739
 H         2.011848         2.196080        -0.340267
 H        -0.311721         0.084821        -1.321986
 H         0.954663        -1.041588        -1.930588
 H        -0.522273        -1.863121         0.615935
 H        -0.081502         0.736144         1.137843
 H         2.403075        -1.447093         3.640935
 H         0.737714        -2.089991         2.858748
 H         2.430689        -2.120851        -0.477209
