19
Iteration:  3283
 C         2.766961         1.316366        -0.091044
 C         1.764082         0.119814         0.067084
 C         0.601715        -0.467128        -0.909713
 C         0.359671        -1.289001         0.386080
 C         0.614198         0.077353         1.154695
 O         1.146341        -0.027122         2.588004
 C         1.758760        -1.238953         2.734287
 O         2.537685        -1.676502         1.591558
 C         1.888829        -1.442304         0.360951
 H         3.227142         1.463984         0.871622
 H         3.393619         1.030505        -1.005132
 H         2.094689         2.146980        -0.475342
 H        -0.180555         0.327443        -1.037207
 H         0.920364        -0.795445        -1.940033
 H        -0.435661        -2.055695         0.588603
 H        -0.194237         0.778800         1.067356
 H         2.388969        -1.322706         3.638602
 H         1.004787        -1.999015         2.875501
 H         2.225045        -2.214615        -0.389821
