19
Iteration:  1070charge 0 multiplicity 1
 C         2.745625         1.288737        -0.226416
 C         1.642288         0.221703         0.086316
 C         0.453893        -0.392730        -0.853586
 C         0.490026        -1.291051         0.373930
 C         0.668133         0.032701         1.207426
 O         1.147462         0.022963         2.511704
 C         1.756796        -1.260881         2.765149
 O         2.565235        -1.761169         1.613838
 C         1.950775        -1.496710         0.410445
 H         3.102612         1.602774         0.764694
 H         3.572578         0.912316        -0.836492
 H         2.199120         2.153718        -0.740984
 H        -0.428520         0.144131        -1.070198
 H         0.998876        -0.868260        -1.722576
 H        -0.227284        -2.084717         0.692175
 H        -0.276608         0.691401         1.163036
 H         2.359682        -1.059481         3.613281
 H         0.852308        -1.965557         2.965843
 H         2.392529        -1.922463        -0.503109
