19
Iteration:  3188charge 0 multiplicity 1
 C         2.814359         1.152935        -0.249805
 C         1.730677         0.165913        -0.008296
 C         0.503001        -0.359927        -0.859119
 C         0.360972        -1.186940         0.394317
 C         0.632334         0.077390         1.219961
 O         0.981449        -0.183476         2.537199
 C         1.758454        -1.318494         2.738831
 O         2.684443        -1.632600         1.705339
 C         1.921594        -1.340993         0.420347
 H         3.451869         1.204580         0.672706
 H         3.527340         0.924532        -1.113803
 H         2.511817         2.158734        -0.447148
 H        -0.242839         0.478305        -1.215627
 H         0.854341        -0.768948        -1.786298
 H        -0.531245        -1.827268         0.522187
 H        -0.136741         0.920666         1.039249
 H         2.344773        -1.117549         3.676536
 H         1.059920        -2.240320         2.812365
 H         2.283912        -1.942813        -0.416257
