19
Iteration:  2267charge 0 multiplicity 1
 C         2.704074         1.322178        -0.083922
 C         1.730510         0.139021         0.048694
 C         0.623131        -0.449404        -0.937060
 C         0.386390        -1.235481         0.369130
 C         0.540582         0.085050         1.246473
 O         1.122503        -0.040157         2.493130
 C         1.798058        -1.232352         2.763467
 O         2.553376        -1.791005         1.600053
 C         1.932547        -1.405763         0.406570
 H         3.147644         1.498787         0.888604
 H         3.421992         1.024486        -0.834262
 H         2.131204         2.232846        -0.429430
 H        -0.136417         0.141453        -1.240982
 H         0.952060        -1.018461        -1.825822
 H        -0.300977        -2.015151         0.493412
 H        -0.214600         0.860295         1.205889
 H         2.583583        -0.979813         3.400406
 H         1.169929        -2.100332         3.067291
 H         2.282870        -2.012289        -0.482659
