19
Iteration:  2884charge 0 multiplicity 1
 C         2.706191         1.302692        -0.224010
 C         1.728939         0.108042         0.063831
 C         0.660717        -0.398601        -0.874338
 C         0.341556        -1.266301         0.408802
 C         0.648511         0.137920         1.193861
 O         1.130472        -0.066126         2.506367
 C         1.673585        -1.362292         2.661122
 O         2.596593        -1.696901         1.689997
 C         1.947830        -1.368900         0.498159
 H         3.078293         1.591353         0.815800
 H         3.455002         1.096320        -1.092763
 H         2.032191         2.028771        -0.644460
 H        -0.199142         0.344010        -1.199904
 H         0.820507        -0.960772        -1.819591
 H        -0.356364        -2.203435         0.384977
 H        -0.023863         0.956245         1.276831
 H         2.275666        -1.300857         3.625229
 H         0.890731        -2.161175         2.643984
 H         2.346679        -1.997840        -0.361595
