19
Iteration:  2841charge 0 multiplicity 1
 C         2.801581         1.112455        -0.288945
 C         1.728584         0.181221         0.008209
 C         0.565134        -0.387478        -0.887750
 C         0.456244        -1.309290         0.288765
 C         0.556745         0.097578         1.305960
 O         1.013715        -0.092792         2.633645
 C         1.764586        -1.405420         2.807807
 O         2.518791        -1.552828         1.638496
 C         1.949254        -1.280312         0.375589
 H         3.401110         1.300309         0.680675
 H         3.591875         0.788624        -1.010508
 H         2.560017         2.074956        -0.675770
 H        -0.298626         0.387847        -1.056079
 H         0.944671        -0.559639        -1.921990
 H        -0.304220        -2.164555         0.379392
 H        -0.139148         0.845188         1.197716
 H         2.547437        -1.334979         3.638493
 H         1.075614        -2.284346         2.940998
 H         2.661319        -1.810827        -0.343624
