19
Iteration:  1747
 C         2.566361         1.213872        -0.124516
 C         1.690678         0.113933         0.064375
 C         0.602978        -0.381194        -0.943130
 C         0.450639        -1.230939         0.364962
 C         0.641375         0.047016         1.253913
 O         1.230620         0.002580         2.475937
 C         1.730709        -1.246972         2.724923
 O         2.542919        -1.772583         1.677172
 C         1.943321        -1.379609         0.390001
 H         3.312264         1.206454         0.701299
 H         3.170786         1.165602        -1.077794
 H         1.960692         2.133039        -0.031987
 H        -0.170260         0.358121        -1.130478
 H         0.968932        -0.938232        -1.820240
 H        -0.345549        -2.049634         0.501323
 H        -0.023514         0.900091         1.136892
 H         2.448046        -1.194820         3.595646
 H         0.900713        -1.906567         2.839957
 H         2.328287        -1.974658        -0.436465
