19
Iteration:  4557
 C         2.847214         1.130260        -0.153838
 C         1.728664         0.006920         0.027198
 C         0.561770        -0.450097        -0.942239
 C         0.365451        -1.286869         0.306779
 C         0.549468         0.047263         1.170870
 O         1.028451         0.008990         2.497073
 C         1.677329        -1.254774         2.741058
 O         2.608524        -1.506376         1.765859
 C         2.001964        -1.401103         0.387433
 H         3.652790         1.225920         0.614611
 H         3.365396         0.957725        -1.090065
 H         2.316132         2.103418        -0.057451
 H        -0.062822         0.419787        -1.155588
 H         1.064925        -1.106803        -1.723384
 H        -0.465870        -1.922819         0.687218
 H        -0.138516         0.950213         1.207309
 H         2.225098        -1.231475         3.753542
 H         0.823836        -2.074230         2.840708
 H         2.676453        -1.844500        -0.239005
