19
Iteration:  4313
 C         2.899776         1.227494        -0.154461
 C         1.739657         0.113252         0.056456
 C         0.496484        -0.449793        -0.936359
 C         0.415270        -1.298987         0.358099
 C         0.576477         0.060850         1.139425
 O         1.013564         0.055151         2.521661
 C         1.577465        -1.193185         2.777674
 O         2.624483        -1.659942         1.701507
 C         2.036367        -1.481424         0.436588
 H         3.532276         1.077756         0.694875
 H         3.596322         1.045116        -1.010222
 H         2.675396         2.239208        -0.470005
 H        -0.439409         0.096305        -1.147395
 H         0.878636        -0.882173        -1.871780
 H        -0.266979        -2.163139         0.216018
 H        -0.294679         0.762018         1.143272
 H         2.212193        -1.273503         3.721608
 H         0.744416        -1.973642         2.740293
 H         2.687420        -1.969467        -0.217756
