19
Iteration:  3450charge 0 multiplicity 1
 C         2.638575         1.201970        -0.124139
 C         1.716510         0.047881         0.026264
 C         0.631882        -0.361909        -0.971542
 C         0.313541        -1.191630         0.415537
 C         0.628672         0.053981         1.197749
 O         1.173952        -0.022094         2.468086
 C         1.748867        -1.331755         2.741867
 O         2.638964        -1.646509         1.695037
 C         1.878921        -1.414581         0.395034
 H         3.046788         1.273330         0.937803
 H         3.450346         1.146193        -0.935865
 H         2.102340         2.102619        -0.356689
 H        -0.087383         0.488647        -1.038266
 H         0.956689        -0.886690        -1.820313
 H        -0.475357        -1.911696         0.430060
 H         0.070735         0.933190         1.194791
 H         2.367611        -1.213966         3.632169
 H         0.993018        -2.154853         2.974044
 H         2.323875        -2.112221        -0.305590
