19
Iteration:  2613
 C         2.732262         1.297769        -0.047555
 C         1.736106         0.060488         0.048044
 C         0.606071        -0.475731        -0.863933
 C         0.309828        -1.206194         0.404471
 C         0.626003         0.086806         1.178417
 O         1.013724        -0.037414         2.479029
 C         1.846334        -1.230663         2.678040
 O         2.577570        -1.732121         1.598337
 C         1.944249        -1.427197         0.406945
 H         3.534417         1.150703         0.808694
 H         3.293706         1.319303        -0.964054
 H         2.249364         2.267285         0.154516
 H        -0.098399         0.297941        -1.072290
 H         0.947932        -0.984621        -1.755180
 H        -0.494003        -1.944661         0.595797
 H        -0.031318         0.897179         0.821073
 H         2.547674        -0.995598         3.499805
 H         1.100508        -1.977409         2.979788
 H         2.310528        -1.970797        -0.468285
