19
Iteration:  2463charge 0 multiplicity 1
 C         2.830048         1.216734        -0.156264
 C         1.674075         0.146776         0.009669
 C         0.574007        -0.337376        -0.808583
 C         0.387055        -1.321842         0.420544
 C         0.584480         0.029010         1.246291
 O         1.029794        -0.056336         2.551089
 C         1.777954        -1.277821         2.686398
 O         2.565058        -1.599203         1.595784
 C         1.973061        -1.405427         0.361817
 H         3.378658         1.275708         0.807516
 H         3.609329         0.707421        -0.778871
 H         2.516604         2.133178        -0.711729
 H        -0.282040         0.334931        -0.951233
 H         0.756901        -0.889792        -1.836518
 H        -0.390996        -2.047003         0.531877
 H        -0.319297         0.685070         1.062153
 H         2.437041        -1.274602         3.580713
 H         1.053608        -2.079650         2.808337
 H         2.546172        -1.937391        -0.484765
