19
Iteration:  4358charge 0 multiplicity 1
 C         2.926244         1.029408        -0.205258
 C         1.707807         0.148151         0.058208
 C         0.643923        -0.444689        -0.944562
 C         0.297164        -1.202715         0.289214
 C         0.545045         0.059610         1.158572
 O         0.890631        -0.120056         2.568965
 C         1.674656        -1.237598         2.763465
 O         2.750995        -1.445540         1.734357
 C         1.929012        -1.390740         0.434736
 H         3.634509         1.035306         0.607422
 H         3.431780         0.742037        -1.079077
 H         2.602540         1.982231        -0.554605
 H        -0.068917         0.209264        -1.306139
 H         1.018717        -1.078689        -1.806109
 H        -0.516824        -1.849484         0.553339
 H        -0.153470         0.947178         1.238031
 H         2.174960        -1.088664         3.730772
 H         1.123504        -2.230084         2.841220
 H         2.232233        -2.132813        -0.232012
