19
Iteration:  1008
 C         2.707643         1.162374        -0.185944
 C         1.717964         0.029479        -0.013499
 C         0.554117        -0.416894        -0.919065
 C         0.291401        -1.186355         0.371360
 C         0.606927         0.105823         1.237030
 O         1.020204        -0.027081         2.578608
 C         1.863840        -1.303481         2.706551
 O         2.720227        -1.563007         1.606662
 C         1.879353        -1.463292         0.465584
 H         3.359336         1.086299         0.661903
 H         3.342013         1.394484        -1.083413
 H         2.275667         2.122868         0.060270
 H        -0.202990         0.370652        -1.231529
 H         0.943598        -1.048185        -1.750821
 H        -0.556821        -1.966501         0.519783
 H        -0.089220         0.933194         1.258683
 H         2.504583        -1.301701         3.572942
 H         1.224254        -2.128405         2.786356
 H         2.332888        -2.135205        -0.210121
