19
Iteration:  3148charge 0 multiplicity 1
 C         2.814373         1.077302        -0.171057
 C         1.656450         0.128287         0.048809
 C         0.531004        -0.336956        -0.879571
 C         0.315054        -1.261322         0.294276
 C         0.590392         0.066794         1.223684
 O         1.057073        -0.047878         2.585030
 C         1.714183        -1.313609         2.725534
 O         2.703336        -1.549222         1.607767
 C         1.956688        -1.376262         0.398546
 H         3.262080         0.947491         0.854197
 H         3.541942         0.752790        -0.870102
 H         2.561108         2.151651        -0.342946
 H        -0.130380         0.443059        -1.088668
 H         1.009447        -0.866085        -1.715460
 H        -0.421436        -2.054927         0.445004
 H        -0.226162         0.786314         1.338176
 H         2.276032        -1.259216         3.652811
 H         0.999802        -2.121844         2.803171
 H         2.457379        -2.014674        -0.351883
