19
Iteration:  2167charge 0 multiplicity 1
 C         2.767270         1.170150        -0.297180
 C         1.706211         0.141579         0.031246
 C         0.563026        -0.412844        -0.887927
 C         0.304832        -1.160931         0.417337
 C         0.635402         0.112526         1.211859
 O         0.972978        -0.185089         2.629366
 C         1.751094        -1.392717         2.708850
 O         2.661833        -1.514997         1.643407
 C         2.041700        -1.342426         0.396778
 H         3.402522         1.120964         0.627005
 H         3.430929         0.651603        -0.969499
 H         2.296433         2.179171        -0.399705
 H        -0.173772         0.354135        -1.027581
 H         0.824975        -0.919800        -1.820242
 H        -0.548480        -1.790604         0.621783
 H        -0.090691         0.972180         1.141919
 H         2.340258        -1.458506         3.686405
 H         1.086723        -2.354647         2.791121
 H         2.473940        -1.917406        -0.490283
