19
Iteration:  4078charge 0 multiplicity 1
 C         2.654386         1.292325        -0.132805
 C         1.769272         0.171892         0.030253
 C         0.595752        -0.549051        -0.894429
 C         0.438248        -1.249721         0.437229
 C         0.700902         0.180149         1.083855
 O         1.129917         0.039445         2.497705
 C         1.606199        -1.295064         2.809504
 O         2.513319        -1.774699         1.643144
 C         2.032883        -1.428238         0.416737
 H         3.131518         1.476793         0.871970
 H         3.406302         1.098194        -0.868860
 H         2.090406         2.145621        -0.570560
 H        -0.116767         0.156167        -1.384494
 H         1.156234        -1.113483        -1.655387
 H        -0.278147        -2.039912         0.617568
 H        -0.108025         0.883143         1.054530
 H         2.034821        -1.312552         3.775714
 H         0.744662        -2.043393         2.809652
 H         2.513164        -1.938137        -0.413496
