19
Iteration:  4704
 C         2.880871         1.040464        -0.202233
 C         1.706723         0.062187         0.132418
 C         0.639769        -0.402106        -0.891691
 C         0.397082        -1.288585         0.313254
 C         0.561449         0.092592         1.188672
 O         0.903733        -0.062897         2.564869
 C         1.757213        -1.195062         2.720491
 O         2.624945        -1.464610         1.638078
 C         1.928498        -1.436687         0.426753
 H         3.528070         1.318300         0.603273
 H         3.450762         0.691364        -1.047935
 H         2.299870         1.812687        -0.598386
 H        -0.174552         0.282345        -1.143967
 H         1.073745        -0.779698        -1.795723
 H        -0.395561        -2.041523         0.564316
 H        -0.059081         0.982798         1.159759
 H         2.195055        -1.242941         3.684113
 H         1.081635        -2.033854         2.807765
 H         2.511296        -2.001748        -0.235372
