19
Iteration:  4749
 C         2.744171         1.271294        -0.140266
 C         1.744089         0.099957         0.027338
 C         0.610335        -0.531803        -0.958997
 C         0.466617        -1.310050         0.347312
 C         0.652801         0.083571         1.122347
 O         1.120638         0.066730         2.549472
 C         1.636807        -1.221347         2.758357
 O         2.481758        -1.704807         1.691660
 C         1.985595        -1.361737         0.459820
 H         3.561908         1.033962         0.554150
 H         3.155979         1.192793        -1.138818
 H         2.298445         2.231296        -0.015347
 H        -0.272291         0.019561        -1.217406
 H         0.975473        -1.097985        -1.840222
 H        -0.265784        -2.118955         0.474531
 H        -0.190637         0.746892         1.031529
 H         2.281239        -1.231677         3.603021
 H         0.861535        -1.889882         3.106182
 H         2.306895        -2.014976        -0.310890
