19
Iteration:  4764
 C         2.641726         1.250535        -0.130261
 C         1.684117         0.151271         0.083350
 C         0.692248        -0.463067        -0.855970
 C         0.444257        -1.328621         0.385884
 C         0.641571         0.066343         1.154401
 O         1.170981         0.137644         2.392580
 C         1.626914        -1.243802         2.752683
 O         2.489222        -1.747424         1.728149
 C         1.982156        -1.514029         0.398069
 H         3.552463         1.220867         0.497265
 H         2.983200         1.215310        -1.194062
 H         2.355778         2.329355         0.039415
 H        -0.016366         0.286875        -1.182501
 H         1.108288        -1.032946        -1.702759
 H        -0.290685        -2.103587         0.538683
 H        -0.167542         0.852392         1.060971
 H         2.188816        -1.150199         3.697979
 H         0.765711        -1.854169         2.613820
 H         2.833889        -2.016303        -0.263373
