19
Iteration:    14
 C         2.707729         1.183303        -0.156567
 C         1.681035         0.147199         0.114756
 C         0.595536        -0.238985        -0.884164
 C         0.402080        -1.320992         0.357215
 C         0.640978        -0.005773         1.182089
 O         0.948952        -0.076884         2.480569
 C         2.025451        -0.978429         2.764608
 O         2.452817        -1.846194         1.683307
 C         1.901917        -1.505239         0.337459
 H         3.463350         1.303278         0.680957
 H         3.272174         0.736817        -0.955550
 H         2.363536         2.222086        -0.478848
 H        -0.171830         0.493014        -1.049415
 H         1.063953        -0.607566        -1.835066
 H        -0.397548        -2.178672         0.522184
 H        -0.218148         0.668900         1.099072
 H         2.969520        -0.458200         3.089395
 H         1.798285        -1.647280         3.565227
 H         2.391922        -2.130726        -0.350384
