19
Iteration:  4592
 C         2.721119         1.256154        -0.156713
 C         1.677810         0.151576         0.072066
 C         0.705985        -0.464048        -0.955041
 C         0.407287        -1.276813         0.380246
 C         0.560546         0.059401         1.134017
 O         1.129587         0.082142         2.412032
 C         1.682300        -1.213933         2.762544
 O         2.491860        -1.821429         1.762305
 C         2.037822        -1.444931         0.451637
 H         3.438228         1.366408         0.615618
 H         3.169505         1.383118        -1.116015
 H         2.104643         2.140606        -0.192137
 H        -0.002533         0.323974        -1.343073
 H         1.017600        -0.995875        -1.814643
 H        -0.287572        -2.126876         0.749563
 H        -0.254284         0.824866         1.054418
 H         2.415609        -1.009953         3.661359
 H         0.807752        -1.901585         3.086407
 H         2.567966        -1.974199        -0.262516
