19
Iteration:  2147charge 0 multiplicity 1
 C         2.786944         1.172466        -0.275772
 C         1.772912         0.082224         0.092441
 C         0.635839        -0.251826        -0.861528
 C         0.343754        -1.215975         0.404838
 C         0.589570         0.036189         1.304528
 O         0.971259        -0.168642         2.545731
 C         1.785297        -1.321990         2.672321
 O         2.687707        -1.501634         1.629595
 C         1.818590        -1.438517         0.439108
 H         3.494451         1.694764         0.389071
 H         3.467867         0.777298        -1.066605
 H         1.988220         1.951596        -0.558594
 H        -0.168153         0.358404        -1.157852
 H         1.025251        -0.831728        -1.756414
 H        -0.298166        -2.065719         0.532482
 H        -0.158965         0.817263         1.075106
 H         2.379649        -1.380307         3.617270
 H         1.226467        -2.246541         2.793792
 H         2.139265        -2.082386        -0.483825
