19
Iteration:  2437
 C         2.655850         1.241428        -0.008182
 C         1.645421         0.020926         0.013311
 C         0.569627        -0.404903        -1.016327
 C         0.254979        -1.222605         0.336224
 C         0.665939         0.188110         1.186794
 O         1.217626        -0.072516         2.465305
 C         1.807123        -1.320633         2.756036
 O         2.668541        -1.633409         1.705023
 C         1.872115        -1.407049         0.416637
 H         3.178659         1.159237         0.993367
 H         3.274574         1.096443        -0.893091
 H         2.037885         2.081179        -0.174009
 H        -0.136714         0.365472        -1.445787
 H         0.990046        -1.046505        -1.776699
 H        -0.428640        -2.099688         0.478276
 H         0.024577         1.023871         1.164811
 H         2.275009        -1.333167         3.705475
 H         1.001695        -2.128881         2.809407
 H         2.392595        -1.949132        -0.308357
