19
Iteration:  2949charge 0 multiplicity 1
 C         2.729450         1.165316        -0.084492
 C         1.632387         0.120838         0.059076
 C         0.621822        -0.310333        -0.898119
 C         0.397625        -1.328981         0.312838
 C         0.495968         0.036331         1.118543
 O         1.140925         0.019941         2.517577
 C         1.768969        -1.249772         2.715121
 O         2.597884        -1.724090         1.655384
 C         1.984489        -1.403988         0.429317
 H         3.521846         1.181576         0.728094
 H         3.283108         0.998403        -1.078951
 H         2.383358         2.167118        -0.056320
 H        -0.224180         0.445592        -1.074040
 H         0.843676        -0.793835        -1.800676
 H        -0.565466        -1.956064         0.448559
 H        -0.290492         0.780818         1.197140
 H         2.367670        -0.999343         3.625067
 H         1.003555        -1.912835         3.074281
 H         2.723190        -1.985967        -0.167749
