19
Iteration:  3638charge 0 multiplicity 1
 C         2.786282         1.203641        -0.142787
 C         1.746797         0.131074        -0.022076
 C         0.529928        -0.458279        -0.858101
 C         0.366944        -1.228232         0.364260
 C         0.645181         0.108173         1.178648
 O         1.006830        -0.112333         2.502210
 C         1.771520        -1.271771         2.793655
 O         2.599413        -1.578535         1.602692
 C         1.944527        -1.420972         0.440311
 H         3.317292         1.216155         0.871477
 H         3.666316         0.894844        -0.810856
 H         2.545948         2.257302        -0.576817
 H        -0.317321         0.218972        -0.937739
 H         0.893735        -0.943473        -1.776061
 H        -0.387601        -2.022850         0.642966
 H         0.028585         0.983885         1.184284
 H         2.320485        -0.993773         3.745406
 H         1.101873        -2.204155         2.876703
 H         2.069091        -2.100040        -0.454622
