19
Iteration:  2117charge 0 multiplicity 1
 C         2.764737         1.195529        -0.199473
 C         1.656206         0.164480         0.041483
 C         0.477740        -0.345541        -0.896675
 C         0.420043        -1.246648         0.282862
 C         0.648140         0.050463         1.259369
 O         1.105992        -0.084311         2.563276
 C         1.780381        -1.290374         2.764427
 O         2.573352        -1.718482         1.659993
 C         1.984908        -1.303636         0.391240
 H         3.200278         1.247780         0.788573
 H         3.419845         0.702236        -0.943280
 H         2.187460         2.077666        -0.508431
 H        -0.462623         0.274707        -1.131135
 H         0.892620        -0.928018        -1.786565
 H        -0.209917        -2.178299         0.303311
 H        -0.142246         0.821457         1.309808
 H         2.403418        -1.044391         3.644933
 H         0.946857        -2.042032         2.950414
 H         2.545662        -1.761808        -0.422910
