19
Iteration:  1052charge 0 multiplicity 1
 C         2.690864         1.162418        -0.205595
 C         1.659099         0.166255         0.010007
 C         0.555174        -0.384385        -0.873210
 C         0.424890        -1.317741         0.392353
 C         0.546017         0.089001         1.231514
 O         1.090129         0.012923         2.580211
 C         1.837101        -1.213267         2.720228
 O         2.545838        -1.836773         1.649672
 C         2.051929        -1.271702         0.360274
 H         3.160798         1.355543         0.748487
 H         3.333752         0.772296        -1.078167
 H         2.377783         2.122073        -0.648998
 H        -0.306334         0.391902        -0.757541
 H         0.642599        -0.893042        -1.853784
 H        -0.291138        -2.266857         0.360169
 H        -0.151117         0.885311         1.100682
 H         2.569396        -1.119685         3.547924
 H         1.130243        -1.958261         3.080761
 H         2.611645        -1.860886        -0.308498
