19
Iteration:  4082charge 0 multiplicity 1
 C         2.649351         1.311522        -0.129660
 C         1.790546         0.153213         0.056449
 C         0.608737        -0.575659        -0.901978
 C         0.454718        -1.269807         0.425192
 C         0.692367         0.196983         1.096865
 O         1.143852         0.027457         2.470442
 C         1.622568        -1.325113         2.808421
 O         2.479870        -1.760605         1.652324
 C         2.011018        -1.380992         0.428589
 H         3.157780         1.507918         0.813735
 H         3.446621         1.092796        -0.890753
 H         2.081627         2.160459        -0.457821
 H        -0.184532         0.074874        -1.445889
 H         1.057015        -1.145531        -1.697472
 H        -0.356166        -1.965927         0.605376
 H        -0.094872         0.975112         1.040282
 H         2.219156        -1.301473         3.765067
 H         0.721033        -1.958972         2.728125
 H         2.458938        -2.015535        -0.336571
