19
Iteration:  3951
 C         2.717321         1.271594        -0.103027
 C         1.728024         0.096577         0.078100
 C         0.603869        -0.408661        -0.874139
 C         0.397833        -1.329218         0.303384
 C         0.600734         0.011756         1.136676
 O         1.146006         0.062783         2.476121
 C         1.662034        -1.232711         2.700298
 O         2.558208        -1.686672         1.700850
 C         1.990037        -1.443553         0.423052
 H         3.549950         1.174755         0.624216
 H         3.062066         1.132232        -1.155788
 H         2.254208         2.204926         0.080676
 H        -0.166665         0.316966        -1.205630
 H         0.956879        -0.921800        -1.702777
 H        -0.340434        -2.075361         0.522780
 H        -0.256214         0.700972         1.241520
 H         2.296373        -1.165313         3.573583
 H         0.850864        -1.882333         2.968694
 H         2.564495        -2.075383        -0.259238
