19
Iteration:  3612charge 0 multiplicity 1
 C         2.662284         1.193951        -0.083297
 C         1.688396         0.076532         0.016717
 C         0.615011        -0.407624        -0.933665
 C         0.351010        -1.272268         0.332402
 C         0.622522         0.082885         1.226290
 O         1.181044         0.062118         2.485879
 C         1.766890        -1.257539         2.693659
 O         2.551847        -1.712075         1.680652
 C         1.987355        -1.473019         0.458531
 H         3.357429         1.327090         0.790240
 H         3.196333         1.295240        -1.061462
 H         2.076281         2.047154        -0.203673
 H        -0.204521         0.396751        -1.088240
 H         0.947258        -0.860504        -1.872354
 H        -0.432344        -1.961585         0.500643
 H        -0.133380         0.891464         1.224452
 H         2.228697        -1.183906         3.682169
 H         0.886511        -1.974441         2.775418
 H         2.470138        -1.881336        -0.445059
