19
Iteration:  3921charge 0 multiplicity 1
 C         2.664563         1.355029        -0.138621
 C         1.739317         0.121400        -0.016093
 C         0.629563        -0.496297        -0.955841
 C         0.389305        -1.259120         0.350684
 C         0.629867         0.137497         1.130861
 O         1.165288         0.002588         2.518501
 C         1.667275        -1.273221         2.754428
 O         2.539771        -1.829780         1.714885
 C         1.955649        -1.354924         0.457110
 H         3.335185         1.322199         0.714509
 H         3.299898         1.368334        -1.074858
 H         2.014726         2.228263        -0.108571
 H        -0.056949         0.168657        -1.407249
 H         1.146017        -1.219245        -1.713960
 H        -0.245385        -2.069382         0.736274
 H        -0.113466         0.873058         1.396734
 H         2.417299        -1.088536         3.508771
 H         0.839512        -2.008959         2.964076
 H         2.411000        -2.090383        -0.248228
