19
Iteration:  1466
 C         2.642000         1.219945        -0.225752
 C         1.661878         0.066909        -0.028089
 C         0.556105        -0.357796        -0.910761
 C         0.317973        -1.221824         0.322182
 C         0.655393         0.113119         1.244601
 O         1.100343        -0.107063         2.601738
 C         1.742969        -1.337693         2.704524
 O         2.726477        -1.519440         1.654887
 C         1.974566        -1.481560         0.482787
 H         3.208645         1.377232         0.717479
 H         3.498403         0.698941        -0.783631
 H         2.232551         2.096085        -0.670139
 H        -0.196273         0.404703        -1.166489
 H         0.798097        -0.960025        -1.734459
 H        -0.557397        -1.825932         0.520392
 H        -0.066994         0.994150         1.309321
 H         2.271151        -1.452974         3.705554
 H         0.895426        -2.110539         2.684718
 H         2.516856        -2.191324        -0.267130
