19
Iteration:  3403charge 0 multiplicity 1
 C         2.667319         1.267266        -0.178115
 C         1.662393         0.167075         0.047158
 C         0.599411        -0.357223        -0.912642
 C         0.498937        -1.324742         0.383744
 C         0.642090         0.098229         1.183070
 O         1.226497         0.056098         2.530248
 C         1.721178        -1.269719         2.724361
 O         2.427526        -1.833100         1.661583
 C         1.984241        -1.379783         0.391948
 H         3.345497         1.107586         0.635232
 H         3.025151         1.249306        -1.249765
 H         2.097960         2.219676        -0.081147
 H        -0.193945         0.336415        -1.129187
 H         1.136107        -0.913611        -1.678223
 H        -0.120975        -2.235388         0.711287
 H        -0.267498         0.653044         1.396435
 H         2.307691        -1.389412         3.654729
 H         0.845601        -1.986812         2.893583
 H         2.490369        -2.004806        -0.405007
