19
Iteration:  5000
 C         2.786607         1.077638        -0.222696
 C         1.732159         0.062546         0.018266
 C         0.686978        -0.424608        -0.890519
 C         0.341857        -1.227129         0.393585
 C         0.629053         0.094905         1.195418
 O         1.056519        -0.033200         2.572150
 C         1.633228        -1.302117         2.783157
 O         2.569624        -1.469170         1.621366
 C         1.964312        -1.401756         0.406250
 H         3.304772         1.061144         0.773698
 H         3.502179         0.808822        -1.023056
 H         2.282416         2.045634        -0.348328
 H         0.018416         0.333305        -1.273070
 H         1.043618        -1.017112        -1.631895
 H        -0.355568        -2.098717         0.382078
 H        -0.114747         0.901516         1.167286
 H         2.253702        -1.365289         3.660606
 H         0.781559        -2.127616         2.828874
 H         2.408532        -2.032515        -0.338563
