19
Iteration:  1186charge 0 multiplicity 1
 C         2.736940         1.152786        -0.153712
 C         1.675026         0.066682         0.005357
 C         0.619944        -0.471544        -0.893974
 C         0.359468        -1.239568         0.474641
 C         0.621315         0.098302         1.251707
 O         1.017798        -0.095919         2.491659
 C         1.858034        -1.288396         2.680956
 O         2.621505        -1.522375         1.593387
 C         1.862803        -1.359706         0.435744
 H         3.726072         1.014715         0.397744
 H         3.017541         1.332538        -1.191284
 H         2.230610         2.067275         0.105831
 H        -0.211721         0.277019        -1.007334
 H         1.034155        -0.902686        -1.816501
 H        -0.265639        -2.090656         0.541776
 H        -0.071444         0.900415         1.277787
 H         2.519885        -0.951046         3.526860
 H         1.117512        -2.123738         2.914894
 H         2.303578        -2.116835        -0.227619
