19
Iteration:  1121charge 0 multiplicity 1
 C         2.708381         1.296509        -0.207185
 C         1.752355         0.121454         0.028066
 C         0.566358        -0.458080        -0.854857
 C         0.340054        -1.250661         0.487550
 C         0.625212         0.063813         1.246066
 O         1.133693        -0.041495         2.508113
 C         1.751983        -1.298657         2.665698
 O         2.618755        -1.653831         1.641024
 C         1.940600        -1.404955         0.388525
 H         3.271465         1.616433         0.722506
 H         3.306769         0.927224        -1.012104
 H         2.167199         2.145775        -0.612372
 H        -0.302700         0.178972        -1.168660
 H         0.880768        -1.107247        -1.679866
 H        -0.468062        -1.921422         0.650770
 H        -0.181557         0.793270         1.219778
 H         2.289376        -1.229122         3.642132
 H         0.970464        -2.014574         2.781800
 H         2.249814        -2.080702        -0.480834
