19
Iteration:  1784
 C         2.753298         1.243022        -0.263860
 C         1.726678         0.094453         0.013122
 C         0.607482        -0.421324        -0.895910
 C         0.340647        -1.177515         0.377016
 C         0.664869         0.108294         1.268303
 O         0.997677        -0.171772         2.563561
 C         1.814558        -1.340120         2.736631
 O         2.634423        -1.598611         1.635996
 C         1.884396        -1.345120         0.418575
 H         3.494605         1.282995         0.583378
 H         3.296090         1.212001        -1.211613
 H         2.251027         2.187619        -0.322137
 H        -0.238671         0.274036        -1.229106
 H         0.780226        -1.104512        -1.755106
 H        -0.409033        -1.872552         0.627327
 H        -0.019634         0.997139         1.411522
 H         2.291768        -1.152371         3.669301
 H         1.128211        -2.252102         2.946394
 H         2.244432        -2.171694        -0.265694
