19
Iteration:   460
 C         2.712145         1.121312        -0.030574
 C         1.642238         0.113345         0.014517
 C         0.513919        -0.521995        -0.894803
 C         0.376291        -1.258667         0.548125
 C         0.634353         0.134776         1.122275
 O         1.180107         0.014181         2.499482
 C         1.773671        -1.264843         2.679118
 O         2.621789        -1.547446         1.564318
 C         1.895837        -1.431771         0.361814
 H         3.202641         0.936171         0.989249
 H         3.535831         1.006172        -0.709480
 H         2.427589         2.201952         0.085741
 H        -0.259597         0.116683        -1.279748
 H         0.954660        -1.164103        -1.731609
 H        -0.262946        -2.043598         0.800046
 H        -0.058412         1.006597         1.036178
 H         2.195943        -1.291636         3.696754
 H         0.906341        -1.974878         2.523333
 H         2.382990        -1.944844        -0.548141
