19
Iteration:  3201charge 0 multiplicity 1
 C         2.816297         1.175454        -0.250405
 C         1.697032         0.149315         0.050763
 C         0.534813        -0.329827        -0.937473
 C         0.409199        -1.199021         0.363230
 C         0.584009         0.118475         1.206245
 O         1.025368        -0.076450         2.532782
 C         1.764599        -1.369908         2.753653
 O         2.609286        -1.714402         1.686566
 C         1.981746        -1.311718         0.414018
 H         3.533105         1.281706         0.608129
 H         3.297707         0.866393        -1.136430
 H         2.244940         2.024347        -0.359582
 H        -0.410285         0.217159        -0.885515
 H         0.594072        -0.939025        -1.797311
 H        -0.107834        -2.134557         0.538464
 H        -0.227453         0.923641         1.428065
 H         2.372057        -1.274992         3.680665
 H         0.964726        -2.109363         2.883793
 H         2.567893        -1.976821        -0.178502
