19
Iteration:  4108charge 0 multiplicity 1
 C         2.669536         1.288803        -0.160092
 C         1.713505         0.139725        -0.001303
 C         0.691181        -0.415170        -0.952646
 C         0.371377        -1.265757         0.364667
 C         0.590900         0.066059         1.127458
 O         1.204087         0.035493         2.467334
 C         1.625137        -1.240876         2.852479
 O         2.570795        -1.746979         1.721575
 C         1.954252        -1.493839         0.469215
 H         3.334917         1.342977         0.713165
 H         3.309466         1.162536        -1.038701
 H         2.111499         2.280697        -0.182139
 H         0.083571         0.249798        -1.454898
 H         1.168352        -1.019250        -1.815095
 H        -0.495531        -2.050066         0.433866
 H        -0.333160         0.717404         1.198653
 H         2.197183        -1.185433         3.824911
 H         0.797733        -1.889538         2.735578
 H         2.476270        -2.157447        -0.339036
