19
Iteration:  3816charge 0 multiplicity 1
 C         2.762923         1.076719        -0.165365
 C         1.677830         0.097742         0.121110
 C         0.594374        -0.353904        -0.922839
 C         0.339483        -1.220389         0.351808
 C         0.567484         0.088475         1.153423
 O         0.997182        -0.070886         2.532134
 C         1.734383        -1.209348         2.743562
 O         2.745745        -1.549975         1.617172
 C         1.918560        -1.518167         0.480846
 H         3.411375         1.334290         0.678994
 H         3.459181         0.913773        -0.975544
 H         2.407820         2.149113        -0.400919
 H        -0.103170         0.432094        -1.180523
 H         1.046389        -0.766798        -1.852407
 H        -0.394446        -2.052849         0.502509
 H        -0.152237         0.926117         1.209008
 H         2.324213        -1.359050         3.633625
 H         1.150046        -2.115048         2.715100
 H         2.256815        -2.044552        -0.372824
