19
Iteration:   819
 C         2.730399         1.228031        -0.206893
 C         1.736337         0.076499         0.027033
 C         0.571555        -0.410700        -0.900284
 C         0.224912        -1.191012         0.348112
 C         0.661542         0.019750         1.235458
 O         1.084534        -0.038557         2.531351
 C         1.780488        -1.214752         2.747009
 O         2.708472        -1.639141         1.609275
 C         1.870106        -1.442270         0.464593
 H         3.459322         1.134052         0.619632
 H         3.280320         1.188125        -1.113460
 H         2.249839         2.206140         0.046922
 H        -0.214534         0.297877        -1.214732
 H         0.856532        -1.231964        -1.678420
 H        -0.682514        -1.963516         0.406115
 H        -0.061223         0.854341         1.213795
 H         2.475548        -1.108028         3.569265
 H         1.228746        -2.135130         2.969413
 H         2.253769        -2.166876        -0.157522
