19
Iteration:  2941charge 0 multiplicity 1
 C         2.683562         1.178457        -0.048233
 C         1.688751         0.186623         0.144426
 C         0.573318        -0.333442        -0.920642
 C         0.367393        -1.278398         0.352606
 C         0.552001         0.016015         1.133622
 O         1.168727         0.050406         2.412902
 C         1.693371        -1.236611         2.741595
 O         2.619456        -1.760031         1.686112
 C         2.026810        -1.454297         0.400115
 H         3.577261         1.241233         0.685633
 H         3.126734         0.936978        -0.985363
 H         2.228362         2.210517        -0.108719
 H        -0.326021         0.296324        -1.026991
 H         0.963946        -0.773287        -1.919264
 H        -0.461319        -2.018478         0.432620
 H        -0.245005         0.691018         1.081807
 H         2.412882        -1.061447         3.566311
 H         1.036131        -2.059933         2.995192
 H         2.491811        -2.033660        -0.453822
