19
Iteration:  3984charge 0 multiplicity 1
 C         2.778303         1.083258        -0.112032
 C         1.670417         0.146133         0.015628
 C         0.564244        -0.403907        -0.905729
 C         0.371827        -1.224379         0.336357
 C         0.627412         0.053054         1.157449
 O         0.998877        -0.093138         2.532161
 C         1.735765        -1.261900         2.724712
 O         2.609231        -1.483003         1.695493
 C         2.012882        -1.444198         0.429451
 H         3.556210         0.919987         0.647493
 H         3.280085         0.878781        -1.096920
 H         2.550798         2.105272        -0.212469
 H        -0.177263         0.358704        -1.229772
 H         0.993101        -0.852472        -1.718263
 H        -0.279181        -2.004053         0.621009
 H        -0.219158         0.716673         0.964696
 H         2.403893        -1.187832         3.548652
 H         0.959144        -2.066681         2.928353
 H         2.502572        -2.005456        -0.348701
