19
Iteration:  2322
 C         2.781300         1.164860        -0.235750
 C         1.747757         0.156670        -0.014980
 C         0.474949        -0.410502        -0.872572
 C         0.383893        -1.214711         0.444748
 C         0.640395         0.055971         1.220969
 O         0.998004        -0.134888         2.574073
 C         1.729607        -1.415378         2.677368
 O         2.645725        -1.503363         1.659337
 C         1.971518        -1.303732         0.394590
 H         3.312986         1.305048         0.731464
 H         3.636657         0.857680        -0.841288
 H         2.650357         2.164207        -0.699864
 H        -0.234864         0.293781        -1.096490
 H         0.854513        -0.915997        -1.787861
 H        -0.235529        -1.961281         0.886749
 H        -0.150605         0.858541         1.257527
 H         2.155640        -1.482421         3.668399
 H         0.979562        -2.278866         2.651279
 H         2.410565        -2.006112        -0.382273
