19
Iteration:  1702
 C         2.689688         1.217107        -0.077407
 C         1.674221         0.113756         0.010902
 C         0.460203        -0.363897        -0.889641
 C         0.388318        -1.307718         0.393486
 C         0.611384         0.084444         1.177644
 O         1.233910         0.022155         2.475286
 C         1.721360        -1.305979         2.724693
 O         2.585200        -1.710070         1.656461
 C         2.008168        -1.373232         0.389647
 H         3.175403         1.485461         0.846207
 H         3.547255         0.969789        -0.712960
 H         2.268833         2.204633        -0.462960
 H        -0.360108         0.281843        -1.098667
 H         0.815408        -0.873798        -1.785941
 H        -0.235699        -2.287315         0.640589
 H        -0.229345         0.769444         1.132611
 H         2.319621        -1.267393         3.679658
 H         0.928149        -2.041165         2.744482
 H         2.464042        -1.991601        -0.351424
