19
Iteration:  2925
 C         2.669499         1.302804        -0.065470
 C         1.707750         0.068069         0.031325
 C         0.583739        -0.427587        -0.882642
 C         0.436188        -1.293680         0.343084
 C         0.642523         0.065916         1.155513
 O         1.211070         0.005306         2.464296
 C         1.714126        -1.243835         2.699647
 O         2.538485        -1.753034         1.664562
 C         1.904906        -1.383947         0.423741
 H         3.265538         1.338818         0.815823
 H         3.394473         1.259896        -0.958372
 H         2.156466         2.255752        -0.033762
 H        -0.151981         0.344974        -1.159528
 H         0.932628        -0.973379        -1.711435
 H        -0.242626        -2.138221         0.550734
 H        -0.134512         0.905784         1.230764
 H         2.113163        -1.215385         3.699911
 H         0.770888        -1.816902         2.794476
 H         2.437758        -2.039176        -0.263652
