19
Iteration:  4144
 C         2.902181         1.189790        -0.191183
 C         1.780078         0.077323         0.021704
 C         0.589583        -0.389377        -0.890430
 C         0.412753        -1.350815         0.375981
 C         0.546655         0.025251         1.165798
 O         0.990022        -0.034884         2.508138
 C         1.708088        -1.177663         2.807374
 O         2.519407        -1.610002         1.662916
 C         1.969525        -1.369588         0.387837
 H         3.662507         1.116410         0.665110
 H         3.445240         1.186604        -1.134422
 H         2.456684         2.204395        -0.154396
 H        -0.127216         0.439355        -1.120992
 H         0.857342        -1.075073        -1.649377
 H        -0.367751        -2.071755         0.432119
 H        -0.327042         0.635196         1.138737
 H         2.321202        -1.129905         3.629083
 H         1.013815        -1.977324         3.124095
 H         2.438049        -2.051322        -0.299755
