19
Iteration:  2199charge 0 multiplicity 1
 C         2.750682         1.212714        -0.187969
 C         1.657039         0.170393         0.115052
 C         0.581159        -0.423602        -0.805572
 C         0.421185        -1.327038         0.326300
 C         0.549172         0.045210         1.235229
 O         1.177235        -0.016193         2.520190
 C         1.659898        -1.287965         2.692476
 O         2.585249        -1.625215         1.636918
 C         1.988320        -1.384033         0.404955
 H         3.494597         1.127353         0.669057
 H         3.307427         1.036427        -1.159031
 H         2.707137         2.328719        -0.269598
 H        -0.348481         0.202660        -0.882021
 H         0.770792        -0.706467        -1.830096
 H        -0.285290        -2.154407         0.318039
 H        -0.343026         0.736804         1.179233
 H         2.379214        -1.343318         3.561218
 H         0.826733        -2.067266         2.494444
 H         2.438490        -1.948143        -0.461685
