19
Iteration:   982charge 0 multiplicity 1
 C         2.746296         1.193401        -0.154228
 C         1.626845         0.158326         0.053190
 C         0.491187        -0.443377        -0.836181
 C         0.427677        -1.325348         0.458453
 C         0.658502         0.068758         1.181816
 O         1.126072        -0.013530         2.471986
 C         1.720735        -1.300634         2.687028
 O         2.596479        -1.579504         1.613270
 C         1.956189        -1.390256         0.405068
 H         3.530801         0.962169         0.623235
 H         3.199117         1.050246        -1.118479
 H         2.658601         2.321047        -0.113645
 H        -0.386371         0.161921        -0.920902
 H         0.797908        -1.001883        -1.755979
 H        -0.309927        -2.110921         0.689921
 H        -0.022038         0.981590         1.183387
 H         2.331669        -1.348514         3.581060
 H         0.957088        -2.106967         2.734175
 H         2.586576        -1.930249        -0.317524
