19
Iteration:  4434charge 0 multiplicity 1
 C         2.591747         1.312177        -0.109652
 C         1.718039         0.102835         0.036906
 C         0.701328        -0.533541        -0.981811
 C         0.451398        -1.232946         0.396969
 C         0.700289         0.124079         1.062415
 O         1.224475         0.037529         2.419566
 C         1.585956        -1.261091         2.797324
 O         2.516954        -1.743420         1.754856
 C         1.931935        -1.428395         0.499638
 H         3.222084         1.486862         0.791640
 H         3.326978         1.036360        -0.881394
 H         2.122000         2.272934        -0.360053
 H        -0.143318        -0.026220        -1.412784
 H         1.201267        -1.267895        -1.733972
 H        -0.338090        -1.906423         0.577761
 H        -0.115955         0.841956         1.177612
 H         2.023667        -1.198616         3.746811
 H         0.729058        -1.889249         2.564898
 H         2.381398        -2.036540        -0.188207
