19
Iteration:  2507
 C         2.781013         1.160169        -0.354132
 C         1.626729         0.161622         0.023489
 C         0.601246        -0.270587        -0.930058
 C         0.321264        -1.205727         0.355185
 C         0.617586         0.051583         1.227026
 O         1.069984        -0.193557         2.585864
 C         1.738300        -1.409642         2.758698
 O         2.675678        -1.534182         1.735888
 C         1.913948        -1.325854         0.448215
 H         3.087807         1.364326         0.690054
 H         3.556129         0.599506        -0.918371
 H         2.372073         2.027769        -0.949956
 H        -0.084903         0.534624        -1.232078
 H         1.079882        -0.903845        -1.819274
 H        -0.350782        -2.029069         0.463541
 H        -0.177075         0.868933         1.376101
 H         2.308232        -1.366540         3.744567
 H         1.077128        -2.283528         2.885846
 H         2.433923        -2.087013        -0.230896
