19
Iteration:  2665
 C         2.841438         1.068676        -0.225072
 C         1.656995         0.147651         0.152463
 C         0.535616        -0.293565        -0.840884
 C         0.414438        -1.313441         0.306674
 C         0.542335         0.051104         1.272789
 O         1.059300        -0.097678         2.585452
 C         1.656854        -1.287807         2.740225
 O         2.670836        -1.522418         1.581553
 C         1.995406        -1.351692         0.386508
 H         3.507865         1.442595         0.566500
 H         3.436194         0.469197        -0.906081
 H         2.519255         1.896964        -0.831494
 H        -0.304161         0.376676        -1.227663
 H         1.029716        -0.765414        -1.652348
 H        -0.341511        -2.145748         0.488649
 H        -0.326076         0.603724         1.107037
 H         2.136541        -1.350836         3.682610
 H         0.912896        -2.085517         2.638640
 H         2.465787        -1.749265        -0.549134
