19
Iteration:  2566
 C         2.724005         1.264003        -0.079485
 C         1.657993         0.178152         0.089249
 C         0.537437        -0.384372        -0.922046
 C         0.445479        -1.326676         0.295714
 C         0.571498         0.039735         1.158515
 O         1.294723         0.008580         2.445637
 C         1.683967        -1.279000         2.725632
 O         2.500574        -1.734624         1.721429
 C         2.008849        -1.405816         0.452345
 H         3.577072         1.288163         0.524293
 H         3.078566         1.306508        -1.146172
 H         2.259783         2.270101         0.081717
 H        -0.330480         0.341060        -1.004249
 H         0.614412        -0.901262        -1.812287
 H        -0.318552        -2.175534         0.408467
 H        -0.369911         0.541905         1.067404
 H         2.333797        -1.222090         3.556226
 H         0.822680        -1.915875         2.893054
 H         2.499922        -1.934568        -0.385481
