19
Iteration:  4968
 C         2.716896         1.268244        -0.211679
 C         1.785804         0.116596         0.033216
 C         0.642090        -0.432981        -0.897154
 C         0.366406        -1.189349         0.433634
 C         0.597992         0.077117         1.067678
 O         1.122202         0.016770         2.418026
 C         1.608812        -1.268295         2.873563
 O         2.558532        -1.791404         1.713426
 C         2.022703        -1.454236         0.463954
 H         3.551603         1.354280         0.559685
 H         3.119485         1.366220        -1.250224
 H         2.161892         2.227752        -0.049177
 H        -0.042046         0.337506        -1.220678
 H         0.954460        -0.984327        -1.769177
 H        -0.411463        -1.940368         0.649727
 H        -0.207703         0.815075         0.949238
 H         2.269288        -1.107866         3.691310
 H         0.849043        -2.058846         3.030878
 H         2.412878        -2.009981        -0.359107
