19
Iteration:   291charge 0 multiplicity 1
 C         2.710855         1.072881        -0.100620
 C         1.655619         0.079819         0.092910
 C         0.603753        -0.354803        -0.932635
 C         0.341276        -1.247556         0.364687
 C         0.559019        -0.005495         1.206427
 O         1.085019         0.012183         2.541039
 C         1.917035        -1.121857         2.743739
 O         2.525006        -1.712974         1.598013
 C         1.957549        -1.377818         0.381465
 H         3.270195         1.255606         0.775397
 H         3.437224         0.784799        -0.905311
 H         2.245590         1.958106        -0.462278
 H        -0.096659         0.466379        -1.256968
 H         0.947500        -0.907838        -1.777946
 H        -0.422050        -2.049430         0.265090
 H        -0.212883         0.714939         1.168522
 H         2.759213        -0.728067         3.342534
 H         1.435450        -1.759216         3.399449
 H         2.363779        -2.050889        -0.350395
