19
Iteration:  1087
 C         2.617027         1.298611        -0.188612
 C         1.734549         0.037619        -0.000847
 C         0.613332        -0.424961        -0.874491
 C         0.306994        -1.266781         0.428770
 C         0.624697         0.061719         1.200847
 O         1.265634        -0.038558         2.494792
 C         1.734350        -1.347623         2.720371
 O         2.564436        -1.620741         1.676669
 C         1.937070        -1.355369         0.413410
 H         3.106950         1.735430         0.731965
 H         3.533374         1.008794        -0.742433
 H         2.110004         2.032252        -0.764074
 H        -0.150355         0.402580        -1.094110
 H         0.714848        -0.994198        -1.777865
 H        -0.498558        -1.986219         0.521786
 H        -0.122230         0.814532         1.327255
 H         2.395682        -1.303799         3.653435
 H         0.910721        -2.026965         2.776703
 H         2.344244        -2.156705        -0.275468
