19
Iteration:  4488charge 0 multiplicity 1
 C         2.772884         1.152613        -0.283293
 C         1.689134         0.102915         0.074570
 C         0.671616        -0.345136        -0.940454
 C         0.381767        -1.314188         0.357229
 C         0.536189         0.074547         1.148369
 O         1.037884        -0.020223         2.487855
 C         1.703877        -1.230967         2.766461
 O         2.554003        -1.632429         1.786674
 C         2.014383        -1.409587         0.434907
 H         3.310917         1.322214         0.723605
 H         3.584846         0.647855        -0.899792
 H         2.522774         2.213597        -0.590175
 H        -0.222594         0.239771        -1.108519
 H         1.296543        -0.778842        -1.826760
 H        -0.317127        -2.078344         0.320751
 H        -0.360196         0.675586         1.212974
 H         2.225658        -1.071941         3.686858
 H         0.990033        -2.069727         3.066618
 H         2.689558        -2.001488        -0.176362
