19
Iteration:  3792
 C         2.755778         1.194322        -0.172717
 C         1.730539         0.125239         0.061341
 C         0.516690        -0.441138        -0.902462
 C         0.426526        -1.257164         0.375224
 C         0.638656         0.005572         1.141465
 O         1.075110        -0.013560         2.513541
 C         1.733496        -1.215918         2.793429
 O         2.491396        -1.686752         1.657733
 C         2.026873        -1.353519         0.392211
 H         3.399356         1.194719         0.671276
 H         3.405965         1.315473        -1.001804
 H         2.340932         2.204260         0.030884
 H        -0.145565         0.336219        -1.133770
 H         0.777117        -1.012461        -1.860489
 H        -0.333546        -2.060494         0.446955
 H        -0.132988         0.695570         1.104555
 H         2.538750        -1.177133         3.487303
 H         1.101277        -2.003138         3.141603
 H         2.472441        -1.961891        -0.395765
