19
Iteration:  4142
 C         2.884209         1.180445        -0.187888
 C         1.779400         0.054043         0.029377
 C         0.584183        -0.378214        -0.887777
 C         0.412559        -1.349754         0.370354
 C         0.557403         0.044652         1.175346
 O         0.999487        -0.034789         2.496368
 C         1.706648        -1.160957         2.806850
 O         2.510601        -1.622480         1.660972
 C         1.973018        -1.360596         0.396330
 H         3.666983         1.196407         0.625033
 H         3.418728         1.149906        -1.117525
 H         2.399225         2.196651        -0.099214
 H        -0.022639         0.432951        -1.106710
 H         0.873387        -1.085930        -1.717002
 H        -0.349716        -2.171151         0.365884
 H        -0.379952         0.634001         1.184913
 H         2.363734        -1.154112         3.655380
 H         0.986653        -1.953899         3.051389
 H         2.542308        -2.065964        -0.298249
