19
Iteration:  2933
 C         2.695634         1.265121        -0.047139
 C         1.677445         0.099956         0.149958
 C         0.553647        -0.383976        -0.898181
 C         0.401927        -1.247067         0.340131
 C         0.642383         0.024867         1.166597
 O         1.179174         0.019639         2.378943
 C         1.704805        -1.203011         2.750718
 O         2.590915        -1.769730         1.688136
 C         1.974725        -1.430427         0.403223
 H         3.371034         1.160611         0.784075
 H         3.133697         1.080124        -0.999942
 H         2.141465         2.250597        -0.193074
 H        -0.242211         0.265605        -1.132635
 H         0.999715        -0.802676        -1.880842
 H        -0.212020        -2.070451         0.478485
 H        -0.260276         0.750732         1.082791
 H         2.315599        -1.158294         3.645395
 H         0.792774        -1.990556         2.726960
 H         2.273375        -1.975527        -0.473495
