19
Iteration:  4888
 C         2.816730         1.121158        -0.155972
 C         1.745208         0.097554         0.062890
 C         0.598837        -0.489483        -0.890130
 C         0.342597        -1.213227         0.450087
 C         0.630835         0.119008         1.126983
 O         0.914502        -0.035260         2.557004
 C         1.654154        -1.169065         2.691339
 O         2.707846        -1.631104         1.612509
 C         1.999830        -1.412383         0.421974
 H         3.296951         1.383810         0.809555
 H         3.719062         0.836447        -0.717257
 H         2.499494         2.097357        -0.587721
 H        -0.178609         0.259133        -1.137631
 H         0.752313        -1.093263        -1.669599
 H        -0.468784        -1.997436         0.581397
 H        -0.104056         0.928583         1.083367
 H         2.179171        -1.286992         3.664062
 H         0.991200        -1.999752         2.650092
 H         2.331609        -2.089955        -0.380175
