19
Iteration:  1595
 C         2.700099         1.201507        -0.194782
 C         1.645548         0.131346         0.046712
 C         0.597935        -0.415104        -0.952598
 C         0.363528        -1.221372         0.457784
 C         0.651561         0.082780         1.209713
 O         1.143142        -0.094424         2.533866
 C         1.736550        -1.376069         2.738539
 O         2.641556        -1.527623         1.651311
 C         1.896787        -1.409118         0.412902
 H         3.475824         1.038702         0.543281
 H         3.006276         1.258633        -1.282129
 H         2.236270         2.145365         0.082806
 H        -0.183169         0.301256        -1.362184
 H         0.941895        -1.098600        -1.796713
 H        -0.293048        -2.016972         0.584724
 H        -0.153638         0.818721         1.082010
 H         2.326032        -1.256396         3.691375
 H         0.968167        -2.181172         2.757129
 H         2.454423        -1.964957        -0.385076
