19
Iteration:  1728
 C         2.726471         1.328871        -0.077690
 C         1.666543         0.211462        -0.004131
 C         0.453709        -0.429760        -0.833265
 C         0.453082        -1.441471         0.317662
 C         0.652604         0.069608         1.141057
 O         1.284005         0.084754         2.476977
 C         1.707266        -1.290012         2.777290
 O         2.444259        -1.785497         1.643859
 C         2.025244        -1.384318         0.388962
 H         3.425430         1.462374         0.777564
 H         3.437798         1.180355        -0.931619
 H         2.418580         2.313788        -0.127520
 H        -0.514324         0.224106        -0.809526
 H         0.632679        -0.951308        -1.813243
 H        -0.251039        -2.160609         0.668268
 H        -0.382669         0.530643         1.164781
 H         2.367761        -1.220283         3.662400
 H         0.771510        -2.021641         2.846112
 H         2.661976        -1.902699        -0.400772
