19
Iteration:  2191
 C         2.799727         1.176256        -0.222528
 C         1.636164         0.231945         0.043892
 C         0.494037        -0.390253        -0.887197
 C         0.477032        -1.300496         0.377179
 C         0.587597         0.055290         1.241238
 O         1.144583        -0.081954         2.536171
 C         1.683523        -1.333836         2.698374
 O         2.600762        -1.598724         1.674955
 C         1.975777        -1.308087         0.406340
 H         3.439679         0.988834         0.617353
 H         3.339154         0.780210        -1.020858
 H         2.356074         2.181293        -0.152593
 H        -0.284775         0.252927        -1.073509
 H         0.847022        -0.925555        -1.818353
 H        -0.146053        -2.158436         0.411650
 H        -0.261756         0.751362         1.266792
 H         2.141955        -1.414432         3.692763
 H         0.858795        -2.125440         2.723208
 H         2.376600        -1.986244        -0.416601
