19
Iteration:  2450charge 0 multiplicity 1
 C         2.714726         1.132732        -0.099770
 C         1.707671         0.112063         0.077784
 C         0.490998        -0.406253        -0.968274
 C         0.353286        -1.179614         0.316370
 C         0.617730         0.040940         1.160789
 O         1.136182        -0.061325         2.553268
 C         1.759830        -1.315956         2.750418
 O         2.654254        -1.604478         1.642934
 C         1.945987        -1.362515         0.402930
 H         3.161108         1.422990         0.911377
 H         3.498480         0.926340        -0.814871
 H         2.275207         2.090144        -0.317466
 H        -0.307221         0.341839        -1.169595
 H         0.854758        -0.958732        -1.909537
 H        -0.405778        -1.873813         0.510604
 H        -0.087706         0.837294         1.297705
 H         2.369934        -1.170622         3.593556
 H         1.006605        -2.124056         2.865194
 H         2.343778        -2.079106        -0.297047
