19
Iteration:  3640
 C         2.813771         1.185998        -0.144285
 C         1.722825         0.138470        -0.028883
 C         0.532128        -0.462599        -0.852141
 C         0.367686        -1.228700         0.359313
 C         0.646425         0.101831         1.194410
 O         0.999085        -0.119455         2.510295
 C         1.770030        -1.271204         2.780608
 O         2.592598        -1.563538         1.601453
 C         1.933994        -1.425045         0.445979
 H         3.363501         1.316399         0.802122
 H         3.669694         0.906739        -0.772154
 H         2.544956         2.249392        -0.598898
 H        -0.272606         0.190092        -0.892565
 H         0.915852        -0.941044        -1.805021
 H        -0.402937        -2.041462         0.607250
 H         0.005927         1.026128         1.211166
 H         2.376987        -0.999280         3.671929
 H         1.144405        -2.173658         2.830213
 H         2.175214        -2.054948        -0.410973
