19
Iteration:  4040charge 0 multiplicity 1
 C         2.784609         1.130440        -0.191527
 C         1.674694         0.086611         0.100285
 C         0.623901        -0.356763        -0.854188
 C         0.368677        -1.271416         0.277274
 C         0.642333         0.025341         1.129972
 O         1.093543        -0.067115         2.507419
 C         1.642281        -1.309308         2.803048
 O         2.582670        -1.535699         1.705372
 C         1.932464        -1.369649         0.425747
 H         3.268201         1.701072         0.584216
 H         3.574266         0.694958        -0.877588
 H         2.243977         1.906483        -0.753109
 H        -0.132393         0.394634        -1.084115
 H         0.985806        -0.781618        -1.791622
 H        -0.237492        -2.212060         0.450302
 H        -0.169401         0.818886         1.080797
 H         2.418895        -1.059604         3.592684
 H         0.980670        -2.161805         2.912945
 H         2.651571        -1.862036        -0.308036
