19
Iteration:  1364charge 0 multiplicity 1
 C         2.710619         1.215189        -0.122074
 C         1.650092         0.115529         0.016662
 C         0.511501        -0.433974        -0.966780
 C         0.391345        -1.295238         0.479065
 C         0.587680         0.087924         1.152289
 O         1.075467         0.009953         2.604877
 C         1.770981        -1.229163         2.679040
 O         2.707573        -1.677585         1.617249
 C         1.975515        -1.427743         0.408971
 H         3.436259         0.953889         0.638986
 H         3.224955         1.176522        -1.074474
 H         2.323033         2.288782         0.115126
 H        -0.130545         0.394506        -1.245628
 H         0.702647        -0.924199        -1.961256
 H        -0.238748        -2.139459         0.607742
 H        -0.259269         0.780851         1.252176
 H         2.396581        -1.143883         3.550646
 H         0.871300        -1.944413         2.656862
 H         2.410934        -2.133873        -0.364285
