19
Iteration:  1326
 C         2.700128         1.148139        -0.209446
 C         1.606312         0.139353         0.051640
 C         0.540848        -0.354901        -0.942513
 C         0.393076        -1.322560         0.329429
 C         0.560052         0.003739         1.271955
 O         1.169066        -0.017275         2.568150
 C         1.746266        -1.290741         2.746403
 O         2.643468        -1.568054         1.656680
 C         1.974631        -1.351702         0.397699
 H         3.331110         1.366380         0.697103
 H         3.431084         0.525798        -0.806859
 H         2.489752         2.060916        -0.727641
 H        -0.344109         0.367754        -1.061498
 H         0.926292        -0.764962        -1.882911
 H        -0.221464        -2.273438         0.632605
 H        -0.313917         0.665409         1.258517
 H         2.332834        -1.363852         3.708130
 H         1.011523        -2.073405         2.737821
 H         2.536509        -1.779066        -0.398368
