19
Iteration:  3234
 C         2.652432         1.287663        -0.190351
 C         1.745135         0.143102         0.112373
 C         0.656227        -0.363351        -0.906691
 C         0.387028        -1.286229         0.337408
 C         0.621056         0.064686         1.274239
 O         1.260151         0.054798         2.500344
 C         1.665932        -1.357840         2.704435
 O         2.519641        -1.724894         1.661826
 C         1.928216        -1.439298         0.421581
 H         3.385325         1.382368         0.649617
 H         3.080293         1.102074        -1.133807
 H         1.981972         2.104083        -0.229597
 H        -0.188403         0.252058        -1.272014
 H         0.921260        -0.932671        -1.767861
 H        -0.278604        -2.131765         0.433362
 H        -0.229440         0.849374         1.149633
 H         2.235824        -1.451537         3.640353
 H         0.678665        -1.969597         2.664293
 H         2.507186        -2.049693        -0.267346
