19
Iteration:  2740
 C         2.613405         1.298416        -0.126486
 C         1.751980         0.106419         0.142552
 C         0.674458        -0.371811        -0.888075
 C         0.336812        -1.230594         0.361211
 C         0.595854         0.055855         1.184356
 O         1.195371        -0.016906         2.480650
 C         1.683334        -1.189873         2.723780
 O         2.546447        -1.863704         1.647671
 C         2.035202        -1.429039         0.395054
 H         3.361280         1.435219         0.635881
 H         3.093801         1.318665        -1.158301
 H         1.960735         2.189858        -0.169310
 H        -0.107415         0.441584        -1.252830
 H         0.915284        -0.849303        -1.827721
 H        -0.445231        -2.027012         0.578601
 H        -0.103990         0.808642         1.067809
 H         2.361604        -1.093817         3.543432
 H         0.851727        -1.954512         2.981751
 H         2.391770        -2.044750        -0.464841
