19
Iteration:  4676
 C         2.904801         1.058452        -0.220733
 C         1.653931         0.169014        -0.051028
 C         0.553695        -0.432791        -0.922519
 C         0.466340        -1.259590         0.338352
 C         0.526846         0.034569         1.165095
 O         1.000808        -0.074325         2.562835
 C         1.699175        -1.243613         2.794199
 O         2.593552        -1.519293         1.696253
 C         1.993974        -1.323003         0.474452
 H         3.268911         1.344773         0.822680
 H         3.666524         0.401971        -0.716409
 H         2.663077         2.035216        -0.765629
 H        -0.346963         0.204425        -1.037484
 H         0.858984        -0.912636        -1.916081
 H        -0.243831        -1.992600         0.647950
 H        -0.192426         0.876236         1.133516
 H         2.177725        -1.357331         3.780022
 H         0.911124        -2.101029         2.783557
 H         2.573540        -2.013792        -0.316473
