19
Iteration:  3354
 C         2.777402         1.110265        -0.176275
 C         1.747838         0.056359         0.034367
 C         0.624826        -0.362513        -0.931175
 C         0.426787        -1.169707         0.428645
 C         0.633427         0.110879         1.232689
 O         0.963584        -0.092247         2.629034
 C         1.718627        -1.347514         2.684431
 O         2.643414        -1.525046         1.556334
 C         1.922170        -1.387199         0.403408
 H         3.428212         1.173504         0.730297
 H         3.229558         0.894991        -1.107848
 H         2.196002         1.985527        -0.403884
 H        -0.294113         0.248576        -0.920303
 H         0.706153        -0.998033        -1.816121
 H        -0.265789        -1.914254         0.778431
 H        -0.075436         1.001534         1.202876
 H         2.301977        -1.372149         3.589151
 H         1.088934        -2.174759         2.738177
 H         2.197158        -2.073630        -0.375964
