19
Iteration:  3481charge 0 multiplicity 1
 C         2.918600         1.157331        -0.196909
 C         1.682135         0.103575         0.081706
 C         0.509927        -0.408366        -0.897597
 C         0.393535        -1.305503         0.448211
 C         0.561264         0.033583         1.268980
 O         1.017139        -0.004456         2.558104
 C         1.765380        -1.345617         2.668598
 O         2.607725        -1.577283         1.623030
 C         1.922857        -1.290999         0.329803
 H         3.343763         1.317379         0.808714
 H         3.700151         0.553666        -0.731385
 H         2.462832         2.028930        -0.548280
 H        -0.312003         0.335575        -1.016766
 H         0.814343        -0.803942        -1.826348
 H        -0.230556        -2.183042         0.541452
 H        -0.139369         0.825456         1.242855
 H         2.405711        -1.164306         3.505447
 H         1.002577        -2.069750         2.732385
 H         2.341982        -1.839842        -0.544247
