19
Iteration:  1567charge 0 multiplicity 1
 C         2.688583         1.357279        -0.107910
 C         1.714694         0.080775         0.008889
 C         0.531080        -0.518858        -0.926771
 C         0.367857        -1.168024         0.493530
 C         0.636913         0.141131         1.167722
 O         1.115719        -0.044675         2.520142
 C         1.758580        -1.278278         2.662272
 O         2.637058        -1.722522         1.618387
 C         1.993803        -1.470108         0.423650
 H         3.321879         1.280823         0.825343
 H         3.204076         1.537903        -1.056100
 H         2.018882         2.170522         0.154705
 H        -0.221250         0.211377        -1.221023
 H         0.655622        -1.260087        -1.657055
 H        -0.428992        -2.010182         0.509301
 H        -0.147313         0.934340         1.060700
 H         2.327101        -1.109626         3.565271
 H         0.960251        -2.065250         2.797686
 H         2.409801        -2.128034        -0.360234
