19
Iteration:  1105
 C         2.542303         1.156163        -0.195370
 C         1.636125         0.082697         0.069832
 C         0.575100        -0.425524        -0.947785
 C         0.351790        -1.134366         0.392245
 C         0.695283         0.164588         1.190607
 O         1.180028         0.002993         2.581565
 C         1.733036        -1.331808         2.693423
 O         2.738631        -1.681617         1.664331
 C         1.928387        -1.465637         0.438953
 H         2.826805         1.559621         0.760425
 H         3.486421         1.122775        -0.798959
 H         1.923106         2.007870        -0.596778
 H        -0.227691         0.236321        -1.384945
 H         1.040382        -1.007105        -1.786552
 H        -0.490277        -1.926534         0.609987
 H         0.061842         1.078427         1.147202
 H         2.214754        -1.505793         3.650211
 H         0.945158        -2.157834         2.514696
 H         2.421026        -2.086455        -0.253918
