19
Iteration:  4901
 C         2.763273         1.196620        -0.121210
 C         1.755580         0.066759         0.072980
 C         0.617694        -0.463630        -0.872228
 C         0.427038        -1.235184         0.419661
 C         0.607945         0.163682         1.093134
 O         1.032817         0.007529         2.432849
 C         1.658919        -1.331202         2.722266
 O         2.642860        -1.645949         1.685830
 C         1.907020        -1.419265         0.455391
 H         3.342728         1.369357         0.827861
 H         3.298416         0.761563        -0.975720
 H         2.184684         2.079174        -0.469103
 H        -0.176756         0.259171        -1.207514
 H         1.041441        -0.987006        -1.713276
 H        -0.427227        -1.882478         0.787105
 H        -0.112762         0.972362         0.980335
 H         2.262221        -0.956069         3.534730
 H         1.008131        -2.097943         2.881423
 H         2.355370        -2.020754        -0.291432
