19
Iteration:  2835
 C         2.867565         1.145300        -0.250334
 C         1.744809         0.175503         0.037302
 C         0.548972        -0.391668        -0.871994
 C         0.410908        -1.277038         0.275458
 C         0.563648         0.062517         1.236737
 O         1.004477        -0.098316         2.632181
 C         1.804287        -1.422367         2.768803
 O         2.535415        -1.513303         1.669127
 C         1.951841        -1.301967         0.353210
 H         3.270314         1.111140         0.736815
 H         3.468760         0.711069        -1.116718
 H         2.404626         2.117463        -0.647214
 H        -0.207755         0.265734        -1.122860
 H         0.813381        -0.798856        -1.877557
 H        -0.308234        -1.956130         0.613559
 H        -0.320123         0.902882         1.329783
 H         2.384081        -1.256105         3.650050
 H         1.133364        -2.280114         2.899798
 H         2.451447        -1.894087        -0.378957
