19
Iteration:  2245charge 0 multiplicity 1
 C         2.686586         1.387941        -0.046918
 C         1.737606         0.173727        -0.049497
 C         0.577021        -0.459294        -0.973904
 C         0.282091        -1.266351         0.353783
 C         0.708677         0.067211         1.108327
 O         1.143919        -0.064063         2.486082
 C         1.872779        -1.304431         2.822144
 O         2.514279        -1.729086         1.686270
 C         1.875115        -1.469459         0.470316
 H         3.249491         1.424056         0.886643
 H         3.307599         1.482058        -0.907806
 H         2.042162         2.325865        -0.006614
 H        -0.124792         0.158770        -1.355334
 H         0.912253        -1.071647        -1.840274
 H        -0.597466        -1.765005         0.540001
 H        -0.028737         0.874880         1.037269
 H         2.695144        -1.105804         3.468697
 H         1.183959        -2.149638         3.058508
 H         2.385396        -2.026152        -0.356905
