19
Iteration:  3505charge 0 multiplicity 1
 C         2.875867         1.067208        -0.267105
 C         1.607197         0.216137         0.083656
 C         0.468347        -0.349982        -0.917360
 C         0.417222        -1.216533         0.350491
 C         0.580382         0.013745         1.211483
 O         1.044717        -0.122435         2.579016
 C         1.718701        -1.307513         2.677021
 O         2.661883        -1.566584         1.708247
 C         1.970864        -1.311687         0.401031
 H         3.357071         1.119516         0.761099
 H         3.494157         0.333369        -0.798328
 H         2.588505         2.005951        -0.631427
 H        -0.415656         0.331062        -1.012039
 H         0.847711        -0.669395        -1.824029
 H        -0.245251        -1.960248         0.700287
 H        -0.149943         0.714763         1.323575
 H         2.379417        -1.130533         3.509297
 H         1.077501        -2.152908         2.739109
 H         2.530271        -1.882984        -0.339175
