19
Iteration:  4059
 C         2.698682         1.247265        -0.214686
 C         1.773924         0.106471         0.042182
 C         0.636378        -0.365415        -0.947672
 C         0.444740        -1.317520         0.368286
 C         0.582332         0.047544         1.219359
 O         1.091521         0.045990         2.504130
 C         1.658642        -1.277521         2.720962
 O         2.588122        -1.720777         1.743167
 C         1.989459        -1.425617         0.447966
 H         3.104055         1.522139         0.784545
 H         3.598582         0.937358        -0.779882
 H         2.259296         2.098717        -0.682732
 H        -0.299597         0.350507        -1.112107
 H         0.767026        -0.847790        -1.872533
 H        -0.396537        -1.941119         0.479153
 H        -0.195817         0.782959         1.112342
 H         2.245966        -1.279990         3.627739
 H         0.715383        -1.855906         2.586059
 H         2.358598        -2.138203        -0.237820
