19
Iteration:  3323
 C         2.902205         1.085556        -0.185503
 C         1.612654         0.180694         0.037789
 C         0.518963        -0.302791        -0.916216
 C         0.388780        -1.269924         0.359387
 C         0.518841        -0.000721         1.182190
 O         1.075310        -0.102852         2.527345
 C         1.758920        -1.314692         2.754270
 O         2.666239        -1.559751         1.634968
 C         1.910266        -1.298867         0.455863
 H         3.503727         1.225668         0.725480
 H         3.547408         0.609464        -0.866384
 H         2.747575         2.099150        -0.589852
 H        -0.399025         0.201424        -0.957683
 H         0.658051        -0.748906        -1.917035
 H        -0.301145        -2.060854         0.659859
 H        -0.314462         0.713323         1.431805
 H         2.345883        -1.207947         3.679895
 H         1.068053        -2.221056         2.779059
 H         2.386012        -1.938207        -0.303689
