19
Iteration:   543charge 0 multiplicity 1
 C         2.682749         1.260750        -0.336304
 C         1.695571         0.157152         0.072826
 C         0.673213        -0.436344        -0.875058
 C         0.411928        -1.184249         0.462442
 C         0.707402         0.102110         1.231998
 O         0.965233        -0.144513         2.554699
 C         1.850781        -1.271941         2.763695
 O         2.507282        -1.706975         1.598208
 C         1.914823        -1.381797         0.435442
 H         3.277865         1.694581         0.460334
 H         3.328715         0.753993        -1.072668
 H         2.144891         2.023611        -0.875115
 H        -0.252441         0.132345        -1.130677
 H         1.153288        -0.999707        -1.682171
 H        -0.474067        -1.904361         0.576004
 H         0.118005         1.007325         1.293722
 H         2.659554        -0.942165         3.474375
 H         1.318159        -2.090572         3.228627
 H         2.355864        -1.987911        -0.283145
