19
Iteration:  1352charge 0 multiplicity 1
 C         2.774079         1.170649        -0.132507
 C         1.649017         0.158675         0.012917
 C         0.514821        -0.469017        -0.850845
 C         0.445316        -1.308023         0.406017
 C         0.540089         0.049362         1.219627
 O         1.129884         0.003049         2.487480
 C         1.754250        -1.276084         2.704940
 O         2.595308        -1.629834         1.614204
 C         1.971735        -1.303803         0.389911
 H         3.468675         1.043079         0.714718
 H         3.345621         1.033613        -1.033650
 H         2.448598         2.287346        -0.121743
 H        -0.457212        -0.005911        -0.848033
 H         0.879709        -0.960515        -1.795521
 H        -0.205202        -2.103479         0.753021
 H        -0.312544         0.715768         1.153419
 H         2.333891        -1.299375         3.615226
 H         1.033102        -2.148632         2.873059
 H         2.506203        -1.773278        -0.448777
