19
Iteration:  1142charge 0 multiplicity 1
 C         2.755113         1.154170        -0.277910
 C         1.615817         0.162785         0.020892
 C         0.467249        -0.337865        -0.881016
 C         0.496127        -1.373986         0.340990
 C         0.599791         0.071075         1.167643
 O         1.137315        -0.050163         2.585397
 C         1.794937        -1.279999         2.792518
 O         2.537615        -1.668845         1.679370
 C         1.986311        -1.283690         0.391507
 H         3.422229         1.061674         0.632131
 H         3.349747         0.997253        -1.175340
 H         2.359165         2.146166        -0.254562
 H        -0.524816         0.181390        -0.912689
 H         0.767870        -0.775585        -1.821531
 H        -0.155999        -2.189196         0.590136
 H        -0.246563         0.717645         1.218189
 H         2.499789        -1.137909         3.672746
 H         1.021472        -2.015041         3.040808
 H         2.558854        -1.815039        -0.388056
