19
Iteration:  4080
 C         2.648732         1.301884        -0.130942
 C         1.784144         0.166803         0.044035
 C         0.602327        -0.567727        -0.896839
 C         0.444443        -1.264213         0.433655
 C         0.695976         0.194997         1.087891
 O         1.136336         0.033484         2.482624
 C         1.617610        -1.311720         2.816499
 O         2.494563        -1.767084         1.643799
 C         2.026199        -1.407871         0.420254
 H         3.149112         1.485882         0.853279
 H         3.419748         1.094886        -0.878433
 H         2.092299         2.136659        -0.515775
 H        -0.167934         0.134423        -1.442867
 H         1.097629        -1.110405        -1.653323
 H        -0.293363        -1.975790         0.600455
 H        -0.087765         0.915148         1.044671
 H         2.114471        -1.308196         3.763398
 H         0.715611        -2.009613         2.760816
 H         2.470546        -1.955998        -0.355061
