19
Iteration:   865charge 0 multiplicity 1
 C         2.800323         1.148196        -0.175872
 C         1.578357         0.153545         0.070847
 C         0.523780        -0.355867        -0.827043
 C         0.362203        -1.346294         0.415464
 C         0.506097        -0.015988         1.204775
 O         1.183958         0.049335         2.495820
 C         1.704573        -1.189260         2.701345
 O         2.688533        -1.649610         1.664822
 C         1.997884        -1.422868         0.348953
 H         3.367188         1.312301         0.698521
 H         3.473927         0.672945        -0.942430
 H         2.578908         2.139435        -0.558062
 H        -0.385735         0.284867        -0.936278
 H         0.898116        -0.802095        -1.766858
 H        -0.618447        -1.963167         0.499137
 H        -0.324166         0.657505         1.265959
 H         2.224932        -1.426835         3.562853
 H         0.958325        -1.992646         2.589718
 H         2.627953        -1.915179        -0.348588
