19
Iteration:  2809charge 0 multiplicity 1
 C         2.756326         1.104999        -0.125995
 C         1.708487         0.078531         0.040338
 C         0.605220        -0.373627        -0.840198
 C         0.356102        -1.264052         0.411534
 C         0.569298         0.159098         1.222850
 O         0.977750        -0.101493         2.493215
 C         1.747365        -1.286881         2.650265
 O         2.735190        -1.554195         1.595483
 C         1.945092        -1.406004         0.447743
 H         3.338435         0.840354         0.821404
 H         3.204704         0.930147        -1.034441
 H         2.308263         2.092111        -0.144617
 H        -0.176055         0.404428        -1.091124
 H         1.019424        -0.672972        -1.864034
 H        -0.498648        -1.974426         0.565091
 H         0.025673         1.070320         1.290052
 H         2.161108        -1.123968         3.705637
 H         1.072178        -2.191113         2.580221
 H         2.320456        -2.011912        -0.433336
