19
Iteration:  4425charge 0 multiplicity 1
 C         2.637022         1.241863        -0.143264
 C         1.754708         0.110816         0.048880
 C         0.708121        -0.539789        -0.967862
 C         0.384491        -1.224569         0.363508
 C         0.569999         0.133201         1.097501
 O         1.257205         0.033777         2.444501
 C         1.571213        -1.241957         2.741911
 O         2.518461        -1.750904         1.768672
 C         2.037259        -1.378089         0.520337
 H         3.137769         1.357462         0.815766
 H         3.301586         1.214419        -0.925520
 H         1.979741         2.063079        -0.382433
 H        -0.094524         0.066616        -1.249165
 H         1.061155        -1.081054        -1.887849
 H        -0.294971        -2.048289         0.457264
 H        -0.250102         0.888034         0.959895
 H         2.094596        -1.277195         3.662812
 H         0.701046        -1.968038         2.932096
 H         2.442406        -1.942270        -0.229755
