19
Iteration:  3810
 C         2.761088         1.150845        -0.126625
 C         1.712699         0.097320         0.026350
 C         0.638103        -0.343849        -0.865831
 C         0.357158        -1.269112         0.365153
 C         0.576376         0.089147         1.192807
 O         0.997861        -0.053283         2.482859
 C         1.785635        -1.253530         2.736917
 O         2.684960        -1.586438         1.648674
 C         1.879253        -1.484998         0.443759
 H         3.543552         1.292463         0.678323
 H         3.279280         0.763700        -1.065971
 H         2.318000         2.106670        -0.307039
 H        -0.256785         0.322147        -1.151986
 H         0.940454        -0.745824        -1.842246
 H        -0.329339        -2.057254         0.651848
 H        -0.184324         0.922050         1.060715
 H         2.294662        -1.038036         3.737484
 H         1.001710        -2.084667         2.775819
 H         2.379244        -2.059063        -0.416782
