19
Iteration:  2847charge 0 multiplicity 1
 C         2.791635         1.117135        -0.299120
 C         1.660894         0.164892         0.020271
 C         0.574794        -0.313224        -0.924148
 C         0.454177        -1.316016         0.320872
 C         0.611703         0.065388         1.310499
 O         1.017617        -0.103812         2.638710
 C         1.729265        -1.356095         2.792507
 O         2.538740        -1.599070         1.631020
 C         1.978848        -1.285095         0.396504
 H         3.399710         1.437114         0.511824
 H         3.637017         0.666889        -0.938491
 H         2.503896         2.145248        -0.685052
 H        -0.276283         0.328258        -0.930344
 H         0.996872        -0.687577        -1.854567
 H        -0.138245        -2.221918         0.220635
 H        -0.231627         0.899234         1.188904
 H         2.431570        -1.300740         3.580394
 H         0.978883        -2.126638         2.986892
 H         2.607657        -1.801399        -0.304970
