19
Iteration:  2852
 C         2.793916         1.148166        -0.307452
 C         1.623692         0.165584         0.068565
 C         0.591192        -0.257581        -0.922731
 C         0.453565        -1.294692         0.332246
 C         0.643156         0.029732         1.263545
 O         1.023756        -0.110929         2.637802
 C         1.699277        -1.300495         2.742060
 O         2.568310        -1.645233         1.652341
 C         1.999268        -1.302613         0.403857
 H         3.371900         1.492027         0.620219
 H         3.496058         0.551592        -0.972856
 H         2.387030         2.032152        -0.773110
 H        -0.368269         0.384294        -1.000014
 H         0.924558        -0.868609        -1.799127
 H        -0.120867        -2.283856         0.260662
 H        -0.150026         0.691175         1.331780
 H         2.348118        -1.196709         3.678559
 H         0.886356        -2.041286         2.957865
 H         2.534989        -1.900651        -0.408348
