19
Iteration:  4428charge 0 multiplicity 1
 C         2.606948         1.263843        -0.123001
 C         1.748997         0.108181         0.054588
 C         0.714893        -0.545471        -0.980092
 C         0.408788        -1.211214         0.380662
 C         0.619431         0.139327         1.073540
 O         1.255376         0.021798         2.437537
 C         1.569943        -1.239583         2.761838
 O         2.517404        -1.748622         1.760865
 C         1.998497        -1.386937         0.528171
 H         3.166924         1.355313         0.802013
 H         3.335206         1.149520        -0.947473
 H         2.030321         2.150854        -0.414614
 H        -0.191912         0.003489        -1.341466
 H         1.064011        -1.093470        -1.810876
 H        -0.344494        -2.065676         0.477570
 H        -0.240831         0.846191         1.007047
 H         2.109383        -1.227858         3.769249
 H         0.684708        -1.963170         2.772190
 H         2.455374        -2.046303        -0.339472
