19
Iteration:  1985
 C         2.798938         1.140381        -0.274672
 C         1.671950         0.075927         0.079837
 C         0.605703        -0.270544        -0.904937
 C         0.361355        -1.254634         0.360386
 C         0.598656         0.027110         1.203317
 O         1.056524        -0.153259         2.613660
 C         1.782368        -1.367639         2.689127
 O         2.639904        -1.447740         1.652335
 C         1.881095        -1.369434         0.436351
 H         3.508988         1.399123         0.490315
 H         3.252691         0.746114        -1.194105
 H         2.358428         2.140888        -0.570876
 H        -0.202708         0.502045        -0.968937
 H         0.779594        -0.847076        -1.892799
 H        -0.507742        -1.950110         0.627387
 H        -0.121670         0.826839         1.426332
 H         2.319195        -1.604303         3.691252
 H         1.104677        -2.231473         2.717125
 H         2.401131        -2.119035        -0.157823
