19
Iteration:  1168
 C         2.743808         1.131310        -0.259317
 C         1.641850         0.095850         0.157394
 C         0.571617        -0.294545        -0.882309
 C         0.349686        -1.323312         0.312097
 C         0.504494        -0.026061         1.171613
 O         1.101854        -0.024182         2.583252
 C         1.828861        -1.209681         2.769870
 O         2.664854        -1.592933         1.637023
 C         1.958975        -1.397937         0.400907
 H         3.599439         0.906597         0.359630
 H         2.976885         1.019548        -1.306613
 H         2.505792         2.220307        -0.045968
 H        -0.191066         0.417270        -1.066248
 H         0.894675        -0.900923        -1.756611
 H        -0.437693        -2.056157         0.455888
 H        -0.382063         0.689323         1.161007
 H         2.456383        -1.111883         3.610473
 H         1.136201        -2.007656         2.985439
 H         2.419260        -1.991539        -0.466750
