19
Iteration:  1810charge 0 multiplicity 1
 C         2.824335         1.082736        -0.300303
 C         1.626205         0.180453         0.082059
 C         0.483047        -0.286706        -0.819605
 C         0.482373        -1.357286         0.335428
 C         0.581752         0.016796         1.238886
 O         1.004011        -0.072914         2.617587
 C         1.732238        -1.320416         2.704822
 O         2.621959        -1.572576         1.639990
 C         2.025311        -1.262015         0.354395
 H         3.449135         0.981156         0.555988
 H         3.396019         0.577749        -1.085676
 H         2.692087         2.181640        -0.634397
 H        -0.367788         0.333080        -0.835461
 H         0.729968        -0.610642        -1.827445
 H        -0.201879        -2.209237         0.643572
 H        -0.165515         0.779457         1.269123
 H         2.264115        -1.268781         3.686760
 H         0.975769        -2.194625         2.787939
 H         2.581336        -1.863252        -0.333651
