19
Iteration:  1658
 C         2.844168         1.207111        -0.299350
 C         1.705785         0.149299        -0.004182
 C         0.548482        -0.389163        -0.930531
 C         0.308191        -1.202763         0.408550
 C         0.586255         0.048990         1.206314
 O         0.976639        -0.168344         2.629392
 C         1.873069        -1.356164         2.786920
 O         2.668682        -1.574666         1.634949
 C         1.868384        -1.361345         0.413774
 H         3.306261         1.481083         0.630649
 H         3.624849         0.943147        -1.001860
 H         2.383521         2.209794        -0.549562
 H        -0.115393         0.409367        -1.194002
 H         0.790367        -1.061507        -1.792806
 H        -0.605669        -1.906141         0.533483
 H        -0.103444         0.855878         1.355209
 H         2.541519        -1.054767         3.628551
 H         1.148675        -2.188493         3.029917
 H         2.324748        -1.939088        -0.351152
