19
Iteration:  3373
 C         2.698142         1.212488        -0.222211
 C         1.692125         0.108120         0.044075
 C         0.593640        -0.316581        -0.873849
 C         0.284801        -1.228100         0.393202
 C         0.644396         0.085733         1.173987
 O         1.113636        -0.086136         2.489288
 C         1.736627        -1.343163         2.717002
 O         2.655597        -1.632184         1.743550
 C         1.952339        -1.433372         0.402546
 H         3.485416         1.153520         0.616856
 H         3.297069         1.208243        -1.225335
 H         2.327768         2.235930        -0.240481
 H        -0.095215         0.530903        -1.298345
 H         0.980178        -0.818818        -1.750948
 H        -0.529014        -1.947787         0.509360
 H        -0.111089         0.815680         1.333387
 H         2.175221        -1.336600         3.718492
 H         0.952829        -2.184037         2.735006
 H         2.421462        -2.170491        -0.244101
