19
Iteration:   915charge 0 multiplicity 1
 C         2.691153         1.378121        -0.299336
 C         1.785196         0.048999         0.015721
 C         0.551849        -0.447909        -0.963664
 C         0.293457        -1.126902         0.459881
 C         0.641272         0.044066         1.216839
 O         1.004646        -0.026013         2.619449
 C         1.780990        -1.283307         2.760078
 O         2.650026        -1.767120         1.619133
 C         1.993409        -1.433193         0.434134
 H         3.256703         1.706802         0.660394
 H         3.481436         1.102378        -0.953142
 H         2.222136         2.361193        -0.636534
 H        -0.158844         0.268692        -1.326811
 H         0.762418        -1.274487        -1.685964
 H        -0.459126        -1.828346         0.729509
 H        -0.122391         0.906498         1.154397
 H         2.560515        -1.264463         3.576629
 H         1.246522        -2.175521         2.975119
 H         2.322001        -2.257744        -0.298642
