19
Iteration:  2256charge 0 multiplicity 1
 C        -0.125067        -0.057458         0.266201
 C         1.259418        -0.461137         0.464008
 O         2.235086        -0.292462        -0.631619
 C         3.067476        -0.887768         0.488114
 C         1.868717        -1.951196         0.638904
 C         1.917393        -2.609425         1.968563
 C         2.540491        -1.680030         3.016184
 O         2.223963        -0.302621         2.822540
 C         2.358285         0.070373         1.500048
 H        -0.650715        -0.333803         1.148243
 H        -0.352502         0.894575        -0.151882
 H        -0.447536        -0.763806        -0.514869
 H         4.140648        -0.997485         0.236419
 H         1.639929        -2.510270        -0.307032
 H         0.850345        -2.855370         2.327272
 H         2.547719        -3.500535         2.135165
 H         2.053551        -2.075158         3.925716
 H         3.599327        -1.803257         2.877772
 H         2.565244         1.175365         1.352912
