19
Iteration:  1211charge 0 multiplicity 1
 C        -0.106977         0.012890         0.297109
 C         1.286158        -0.632633         0.409033
 O         2.148269        -0.276629        -0.641620
 C         3.025541        -0.834993         0.386504
 C         2.092543        -2.031453         0.600800
 C         1.808345        -2.573630         2.096177
 C         2.560958        -1.630444         3.104256
 O         2.254838        -0.284193         2.795836
 C         2.279680        -0.000918         1.428053
 H        -0.787960        -0.598657         0.928984
 H        -0.051976         1.045912         0.717693
 H        -0.469963         0.052944        -0.740125
 H         4.108195        -0.928879         0.266722
 H         2.174256        -2.890990        -0.120417
 H         0.646640        -2.559802         2.210852
 H         2.216379        -3.560157         2.226410
 H         2.235020        -1.726547         4.146747
 H         3.752435        -1.866065         3.008900
 H         2.301550         1.083506         1.205963
