19
Iteration:  1072
 C        -0.231807        -0.225998         0.370256
 C         1.270859        -0.500042         0.472689
 O         2.303521        -0.194406        -0.624441
 C         3.081193        -0.903164         0.433522
 C         1.929883        -1.929800         0.630616
 C         1.802547        -2.599664         2.037332
 C         2.424723        -1.676873         3.088046
 O         2.262563        -0.263442         2.726980
 C         2.513791         0.080858         1.377659
 H        -0.611992        -0.006054         1.425956
 H        -0.525564         0.677190        -0.179181
 H        -0.855828        -1.075673         0.000768
 H         4.156888        -1.030123         0.103456
 H         1.711240        -2.497611        -0.275068
 H         0.785188        -2.822794         2.185675
 H         2.407817        -3.563196         2.009774
 H         2.054612        -1.756713         4.094667
 H         3.556823        -1.884672         3.022277
 H         2.706105         1.133087         1.232832
