19
Iteration:  1747
 C        -0.141394        -0.141255         0.242059
 C         1.280875        -0.509555         0.450146
 O         2.174935        -0.205088        -0.639880
 C         3.125213        -0.865324         0.449740
 C         1.885386        -1.959608         0.677700
 C         1.840027        -2.619817         2.084288
 C         2.567990        -1.678229         3.042792
 O         2.257773        -0.298252         2.791946
 C         2.363913         0.041900         1.445448
 H        -0.785102        -0.278544         1.069668
 H        -0.174214         0.905086        -0.011875
 H        -0.520437        -0.613769        -0.673257
 H         4.234730        -1.009229         0.189767
 H         1.691682        -2.506006        -0.244904
 H         0.777998        -2.839171         2.385177
 H         2.192172        -3.681515         1.898991
 H         2.372226        -1.774692         4.055721
 H         3.597738        -1.720249         2.880172
 H         2.556748         1.141999         1.499384
