19
Iteration:   682charge 0 multiplicity 1
 C        -0.141086        -0.016642         0.382967
 C         1.244451        -0.568479         0.313636
 O         2.247885        -0.293478        -0.707408
 C         3.036260        -0.875368         0.375875
 C         2.019358        -1.939511         0.671088
 C         1.855713        -2.642254         2.051612
 C         2.475274        -1.663043         3.081758
 O         2.219341        -0.261692         2.832916
 C         2.386551         0.017435         1.447550
 H        -0.325539         0.224494         1.448669
 H        -0.261785         1.056420         0.138474
 H        -1.021790        -0.697154         0.146275
 H         4.066486        -1.146274         0.194935
 H         1.987504        -2.736973        -0.099695
 H         0.814606        -2.737535         2.093334
 H         2.400838        -3.503958         2.004247
 H         2.278050        -1.844477         4.151335
 H         3.470375        -1.767039         2.967749
 H         2.528937         1.074522         1.231682
