19
Iteration:  4276
 C        -0.183452        -0.284691         0.403366
 C         1.279570        -0.608589         0.481894
 O         2.276472        -0.305286        -0.701488
 C         3.153858        -0.797803         0.402562
 C         1.934639        -1.896661         0.695408
 C         1.761115        -2.538773         2.003539
 C         2.414149        -1.633097         3.027009
 O         2.368599        -0.235781         2.723584
 C         2.362380         0.126672         1.422959
 H        -0.611392        -0.169351         1.380301
 H        -0.439610         0.675264        -0.042959
 H        -0.666748        -1.132567        -0.033116
 H         4.280849        -1.054421         0.487835
 H         1.934111        -2.613503        -0.150771
 H         0.688043        -2.515587         2.283058
 H         1.920596        -3.579815         2.147729
 H         1.975542        -1.907830         4.016301
 H         3.523331        -1.859246         3.216531
 H         2.348140         1.200783         1.275982
