19
Iteration:  1569
 C        -0.159485        -0.187972         0.206360
 C         1.277093        -0.363447         0.514063
 O         2.272348        -0.206717        -0.661270
 C         3.033220        -0.956087         0.411337
 C         1.773150        -1.937176         0.724713
 C         1.903965        -2.647512         2.120196
 C         2.559913        -1.638998         3.025478
 O         2.208087        -0.297884         2.760750
 C         2.449785         0.073356         1.426135
 H        -0.675478        -0.547217         1.052684
 H        -0.617628         0.793073         0.178734
 H        -0.415728        -0.703843        -0.681960
 H         3.991978        -1.138593         0.052250
 H         1.680522        -2.477494        -0.150022
 H         0.901343        -3.070376         2.455110
 H         2.663370        -3.488721         1.915847
 H         2.191250        -1.856728         4.063540
 H         3.803409        -1.869533         3.068144
 H         2.668256         1.120936         1.498961
