19
Iteration:  2725
 C        -0.211144        -0.066347         0.361329
 C         1.274916        -0.604363         0.406351
 O         2.241504        -0.256205        -0.665218
 C         3.117059        -0.822353         0.428082
 C         2.022432        -1.964980         0.635570
 C         1.896234        -2.622514         1.954619
 C         2.450066        -1.672633         3.074371
 O         2.281439        -0.282726         2.851628
 C         2.240925         0.029168         1.427911
 H        -0.663390        -0.275806         1.243393
 H         0.003713         0.991561         0.427495
 H        -0.548676        -0.184003        -0.635982
 H         4.138347        -0.675967         0.387668
 H         2.064333        -2.583325        -0.266732
 H         0.781945        -2.859503         2.109262
 H         2.380549        -3.655582         1.896780
 H         1.891369        -1.984130         3.897894
 H         3.518755        -1.781685         3.397466
 H         2.511494         1.103576         1.285018
