19
Iteration:  3653charge 0 multiplicity 1
 C        -0.178849        -0.180812         0.290042
 C         1.290114        -0.573788         0.529077
 O         2.214247        -0.246370        -0.614886
 C         3.095679        -0.869352         0.430808
 C         1.942957        -1.942148         0.606099
 C         1.845134        -2.680347         1.970175
 C         2.437107        -1.565952         3.058785
 O         2.292802        -0.207893         2.804710
 C         2.355234         0.073708         1.443652
 H        -0.817352        -0.954482         0.769972
 H        -0.264043         0.876969         0.588854
 H        -0.245176         0.032802        -0.765176
 H         4.148041        -1.114961        -0.009406
 H         1.728941        -2.645380        -0.204156
 H         0.895870        -3.141953         2.283176
 H         2.641916        -3.522096         2.023281
 H         2.174486        -1.756326         4.154933
 H         3.479154        -1.954351         3.073352
 H         2.625950         1.105723         1.291776
