19
Iteration:  4298
 C        -0.166070        -0.166240         0.300859
 C         1.301087        -0.598819         0.408076
 O         2.185016        -0.241073        -0.681842
 C         3.036619        -0.938650         0.381572
 C         2.029462        -1.991840         0.626720
 C         1.828807        -2.561048         2.064993
 C         2.462273        -1.586546         3.135044
 O         2.279411        -0.186351         2.801751
 C         2.373020         0.045787         1.483964
 H        -0.611690        -0.312622         1.263387
 H        -0.170936         0.917832         0.128005
 H        -0.706344        -0.763967        -0.400363
 H         4.173578        -0.949623         0.088483
 H         1.806720        -2.647025        -0.248702
 H         0.796180        -2.915228         2.235380
 H         2.273282        -3.538966         2.063048
 H         2.267974        -1.904919         4.180750
 H         3.594090        -1.695990         3.017796
 H         2.694144         1.009528         1.123602
