19
Iteration:  3207charge 0 multiplicity 1
 C        -0.166455        -0.218425         0.168892
 C         1.195984        -0.523042         0.413293
 O         2.280890        -0.166329        -0.667808
 C         3.003172        -0.775315         0.442148
 C         1.970040        -1.939393         0.641510
 C         1.809238        -2.550057         2.000452
 C         2.624075        -1.715419         3.067413
 O         2.338447        -0.315903         2.943759
 C         2.264422         0.030246         1.512322
 H        -0.818012        -0.666553         0.962764
 H        -0.214545         0.868374         0.059212
 H        -0.551015        -0.715028        -0.693777
 H         4.085685        -0.876616         0.115361
 H         1.798898        -2.633634        -0.214803
 H         0.733344        -2.418985         2.281500
 H         1.989772        -3.668677         2.105014
 H         2.558697        -2.041773         4.054109
 H         3.724242        -2.114705         2.798717
 H         2.313849         1.074070         1.355743
