19
Iteration:  3861
 C        -0.136665        -0.352348         0.322523
 C         1.301728        -0.531061         0.526616
 O         2.218605        -0.260287        -0.698219
 C         3.093850        -0.827137         0.398927
 C         1.956201        -1.931141         0.705518
 C         1.694591        -2.561395         2.006361
 C         2.414352        -1.676697         3.040331
 O         2.364023        -0.214470         2.794759
 C         2.437278         0.161123         1.419805
 H        -0.618828        -0.923055         1.080327
 H        -0.543462         0.641875         0.411926
 H        -0.623508        -0.704978        -0.590170
 H         4.180994        -0.882965         0.060761
 H         1.823437        -2.421742        -0.253716
 H         0.600198        -2.535779         2.222432
 H         2.202436        -3.514486         2.251497
 H         2.283890        -1.802007         4.121633
 H         3.444047        -1.996188         2.951311
 H         2.729234         1.151845         1.341692
