19
Iteration:  2811
 C        -0.161961        -0.218176         0.226890
 C         1.268430        -0.536852         0.476994
 O         2.232434        -0.188061        -0.583134
 C         3.108325        -0.793523         0.461306
 C         1.987512        -1.898509         0.593317
 C         1.698572        -2.608391         2.030662
 C         2.610246        -1.694452         3.004939
 O         2.321401        -0.305273         2.862628
 C         2.290153         0.056307         1.446100
 H        -0.919690        -0.490660         0.957803
 H        -0.343987         0.844893        -0.055805
 H        -0.627385        -0.883937        -0.582186
 H         4.133051        -0.820551         0.299182
 H         2.180115        -2.541161        -0.275124
 H         0.584884        -2.572171         2.184308
 H         1.979600        -3.594001         2.012151
 H         2.358001        -2.037271         4.002042
 H         3.631530        -2.063591         2.839298
 H         2.483394         1.167243         1.455288
