19
Iteration:   297charge 0 multiplicity 1
 C        -0.104551        -0.103601         0.369509
 C         1.276421        -0.625652         0.443540
 O         2.239741        -0.314175        -0.696066
 C         3.051951        -0.783663         0.387327
 C         1.988874        -1.969766         0.696328
 C         1.721056        -2.552223         2.087919
 C         2.430107        -1.726651         3.021887
 O         2.418186        -0.235540         2.770577
 C         2.266235         0.085612         1.420088
 H        -0.696720        -0.296797         1.286163
 H         0.135350         0.955947         0.331652
 H        -0.456360        -0.210462        -0.594463
 H         4.134627        -0.827871         0.293832
 H         2.006460        -2.743385        -0.029351
 H         0.670427        -2.787624         2.248407
 H         2.185872        -3.659303         2.131804
 H         2.224425        -1.832686         4.052190
 H         3.413219        -2.079016         2.834228
 H         2.229770         1.174591         1.315236
