19
Iteration:  4963
 C        -0.221082        -0.282790         0.161852
 C         1.244502        -0.553223         0.471496
 O         2.230271        -0.164184        -0.629523
 C         3.084258        -0.743464         0.497983
 C         1.990555        -1.961077         0.624393
 C         1.682555        -2.525469         2.013148
 C         2.520179        -1.742092         3.012022
 O         2.485393        -0.317350         2.868657
 C         2.307411         0.050719         1.508050
 H        -0.724985         0.359989         0.918037
 H        -0.201975         0.137622        -0.818139
 H        -0.811922        -1.207033         0.079967
 H         4.170105        -0.696604         0.274587
 H         2.045568        -2.636642        -0.300993
 H         0.607957        -2.157850         2.339263
 H         1.938564        -3.599269         1.995168
 H         2.330232        -1.832668         4.162145
 H         3.567745        -1.923856         2.845041
 H         2.268060         1.138058         1.401799
