19
Iteration:  2676charge 0 multiplicity 1
 C        -0.164011        -0.287782         0.195425
 C         1.300554        -0.477692         0.540755
 O         2.229303        -0.180499        -0.645965
 C         2.997712        -0.849739         0.410512
 C         1.903942        -1.856685         0.608554
 C         1.808863        -2.547740         2.030225
 C         2.534824        -1.742441         3.010924
 O         2.188261        -0.328617         2.837545
 C         2.536739         0.115212         1.560062
 H        -0.690359        -0.156948         1.241869
 H        -0.236686         0.680900        -0.374900
 H        -0.426842        -1.191059        -0.490000
 H         4.077409        -1.177925         0.146468
 H         1.723083        -2.500831        -0.289932
 H         0.681546        -2.676187         2.119740
 H         2.209383        -3.519451         1.992684
 H         2.259458        -1.926979         4.122473
 H         3.736966        -1.965008         2.903729
 H         2.890336         1.135964         1.475114
