19
Iteration:  1089charge 0 multiplicity 1
 C        -0.213008        -0.142190         0.404535
 C         1.273291        -0.550023         0.470765
 O         2.329909        -0.262524        -0.718966
 C         3.130355        -0.800929         0.345303
 C         1.988902        -1.950102         0.626955
 C         1.767766        -2.549872         2.016084
 C         2.478822        -1.668959         3.050244
 O         2.377026        -0.275748         2.828304
 C         2.230792         0.016569         1.438576
 H        -0.673482        -0.078035         1.361884
 H        -0.261667         0.649402        -0.346941
 H        -0.769003        -0.971717        -0.063971
 H         4.188274        -0.918425         0.322790
 H         1.847086        -2.738634        -0.155773
 H         0.620981        -2.572845         2.296487
 H         2.030671        -3.573555         2.137050
 H         1.929467        -1.794498         4.020544
 H         3.503639        -1.986629         3.160236
 H         2.333495         1.133999         1.467997
