19
Iteration:  1213charge 0 multiplicity 1
 C        -0.118532         0.021326         0.297073
 C         1.280431        -0.629631         0.388725
 O         2.150158        -0.273146        -0.644120
 C         3.027685        -0.853785         0.387266
 C         2.106820        -2.046403         0.615752
 C         1.795183        -2.576903         2.084792
 C         2.564737        -1.633657         3.101626
 O         2.254820        -0.271671         2.806723
 C         2.297244         0.004336         1.440074
 H        -0.793636        -0.547313         0.948271
 H        -0.160999         1.001056         0.727502
 H        -0.525101         0.014124        -0.700270
 H         4.147500        -0.905783         0.227634
 H         2.207474        -2.866508        -0.141232
 H         0.650911        -2.507126         2.240655
 H         2.269509        -3.577223         2.194693
 H         2.235832        -1.765116         4.073299
 H         3.684915        -1.820121         3.040519
 H         2.291243         1.051703         1.186473
