19
Iteration:  2628
 C        -0.247382        -0.118757         0.209072
 C         1.201750        -0.612537         0.361127
 O         2.303490        -0.159046        -0.600888
 C         3.073497        -0.798598         0.532045
 C         2.011639        -1.959120         0.609629
 C         1.757471        -2.597294         2.015623
 C         2.601070        -1.666691         3.036927
 O         2.391427        -0.304099         2.871515
 C         2.217368        -0.022039         1.460611
 H        -0.691468        -0.077980         1.242460
 H        -0.105770         0.926475        -0.121089
 H        -0.804166        -0.705023        -0.487622
 H         4.153540        -0.799795         0.323183
 H         2.014101        -2.757554        -0.175511
 H         0.740429        -2.448999         2.191256
 H         1.973319        -3.762481         1.906406
 H         2.204211        -1.942277         4.018318
 H         3.693916        -2.027254         2.929761
 H         2.256727         1.094950         1.331377
