19
Iteration:  4562charge 0 multiplicity 1
 C        -0.197702        -0.165916         0.111362
 C         1.207316        -0.646540         0.474059
 O         2.208608        -0.303913        -0.603316
 C         3.057737        -0.818066         0.459101
 C         1.833648        -1.950048         0.630384
 C         1.820016        -2.571039         2.076853
 C         2.667870        -1.629773         2.998302
 O         2.373926        -0.249824         2.861196
 C         2.292171         0.096060         1.489244
 H        -0.954332        -0.586208         0.775136
 H        -0.350468         0.855135         0.280247
 H        -0.302739        -0.421154        -0.941201
 H         4.229887        -0.864970         0.273936
 H         2.018128        -2.696331        -0.130737
 H         0.771056        -2.324575         2.393698
 H         2.074850        -3.706196         2.233743
 H         2.442015        -1.746269         4.042605
 H         3.788225        -1.746041         2.892115
 H         2.719921         1.105609         1.371269
