19
Iteration:  2936
 C        -0.093814        -0.159324         0.375887
 C         1.275110        -0.564563         0.488468
 O         2.270234        -0.197976        -0.635195
 C         3.062508        -0.831459         0.449755
 C         2.032728        -1.905393         0.581734
 C         1.880901        -2.601953         2.034710
 C         2.476376        -1.644362         3.004466
 O         2.208279        -0.343704         2.780481
 C         2.239407         0.035527         1.402160
 H        -0.631234        -0.475919         1.268220
 H        -0.211400         0.909974         0.485310
 H        -0.551912        -0.329062        -0.530191
 H         4.185449        -0.878428         0.359859
 H         1.883092        -2.567808        -0.325664
 H         0.851264        -2.758973         2.336446
 H         2.346869        -3.613792         1.962033
 H         2.062721        -2.003965         3.923170
 H         3.473475        -1.836412         3.091189
 H         2.389557         1.067616         1.241406
