19
Iteration:  3254
 C        -0.175151        -0.089369         0.284116
 C         1.246241        -0.480602         0.467665
 O         2.293741        -0.227906        -0.657892
 C         3.065088        -0.892415         0.368537
 C         1.902910        -1.942494         0.635020
 C         2.005081        -2.694396         2.014358
 C         2.550562        -1.679711         3.066308
 O         2.140614        -0.267785         2.810206
 C         2.290568         0.093951         1.513907
 H        -0.595815        -0.450305         1.255767
 H        -0.128790         1.021666         0.243187
 H        -0.795189        -0.611732        -0.489109
 H         4.128101        -1.090883         0.126457
 H         1.749925        -2.555355        -0.299230
 H         0.983138        -3.196566         2.314754
 H         2.686512        -3.441469         1.812212
 H         2.141678        -2.056153         4.036038
 H         3.712246        -1.877935         3.177753
 H         2.473027         1.202930         1.370698
