19
Iteration:   265
 C        -0.190325        -0.155225         0.310648
 C         1.281991        -0.458171         0.416549
 O         2.243397        -0.257075        -0.663984
 C         3.033678        -0.927368         0.419445
 C         1.959379        -1.985499         0.631761
 C         1.812835        -2.473945         2.059686
 C         2.516318        -1.737519         3.021458
 O         2.306286        -0.294207         2.820972
 C         2.386740         0.071420         1.477307
 H        -0.750746         0.085602         1.244561
 H        -0.164778         0.771622        -0.259804
 H        -0.722799        -0.929602        -0.182923
 H         4.103574        -1.043758         0.149364
 H         1.869608        -2.732313        -0.165394
 H         0.812470        -2.276765         2.399407
 H         2.029714        -3.619768         2.233171
 H         2.189344        -1.804305         4.016654
 H         3.523261        -1.958239         2.991831
 H         2.643656         1.110960         1.203056
