19
Iteration:  3433charge 0 multiplicity 1
 C        -0.159145        -0.047872         0.282988
 C         1.290836        -0.560832         0.445525
 O         2.266151        -0.228205        -0.597024
 C         3.006501        -0.931132         0.518639
 C         1.986016        -1.989683         0.603994
 C         1.949661        -2.629038         2.015413
 C         2.559569        -1.562046         3.008940
 O         2.166050        -0.295929         2.790429
 C         2.272567         0.007043         1.438744
 H        -0.880821        -0.505026         1.034308
 H        -0.145917         1.018268         0.599254
 H        -0.719153        -0.229242        -0.671434
 H         4.070170        -1.145816         0.222869
 H         2.034825        -2.684797        -0.227009
 H         0.808558        -2.855009         2.267948
 H         2.607115        -3.437635         1.972405
 H         2.308517        -1.884162         4.098813
 H         3.636044        -1.638509         2.771734
 H         2.422960         1.097534         1.252406
