19
Iteration:  3891charge 0 multiplicity 1
 C        -0.262930        -0.377086         0.259298
 C         1.264694        -0.590387         0.464636
 O         2.259084        -0.167912        -0.672116
 C         3.054371        -0.881035         0.374584
 C         2.000415        -1.912494         0.624025
 C         1.724514        -2.424285         2.077288
 C         2.446083        -1.686973         3.100179
 O         2.518177        -0.244839         2.819220
 C         2.340798         0.074968         1.431765
 H        -0.564515        -1.166558         1.015542
 H        -0.664619         0.635093         0.415899
 H        -0.595406        -0.633776        -0.774627
 H         4.119273        -0.891237         0.193929
 H         1.879478        -2.612434        -0.217777
 H         0.645833        -2.271710         2.152207
 H         1.837945        -3.430699         2.350411
 H         1.913311        -1.667714         4.130334
 H         3.544147        -2.162889         3.193447
 H         2.577954         1.167281         1.387974
