19
Iteration:   497charge 0 multiplicity 1
 C        -0.108072        -0.002170         0.444999
 C         1.260451        -0.637842         0.494069
 O         2.196045        -0.379495        -0.692754
 C         3.074925        -0.806580         0.337674
 C         2.056200        -1.946833         0.613516
 C         1.859330        -2.570204         2.011163
 C         2.415984        -1.674039         3.119182
 O         2.255086        -0.270552         2.776632
 C         2.299956         0.031577         1.409871
 H        -0.691757         0.244813         1.283870
 H         0.347304         0.918600         0.136591
 H        -0.658880        -0.483749        -0.346078
 H         4.125257        -0.853264        -0.021960
 H         2.098814        -2.628459        -0.264453
 H         0.795470        -2.488039         2.236950
 H         2.277908        -3.638696         2.224855
 H         2.053590        -1.881353         4.146455
 H         3.441516        -1.790020         3.118508
 H         2.615406         1.053811         1.160110
