19
Iteration:  2869
 C        -0.228949        -0.198150         0.228283
 C         1.194566        -0.496451         0.468829
 O         2.300620        -0.162591        -0.554604
 C         3.094204        -0.902643         0.480514
 C         1.885468        -1.920247         0.646217
 C         1.904498        -2.635853         1.949951
 C         2.515677        -1.709899         2.940907
 O         2.292219        -0.271494         2.864349
 C         2.320473         0.078610         1.452625
 H        -0.690453         0.071640         1.240302
 H        -0.446966         0.741201        -0.336496
 H        -0.715161        -0.920367        -0.480680
 H         4.225155        -1.023934         0.449694
 H         1.904344        -2.547010        -0.337718
 H         0.873063        -3.015675         2.209242
 H         2.644042        -3.543800         2.065199
 H         2.109284        -1.855333         3.969401
 H         3.648997        -1.883497         3.032816
 H         2.662464         1.129930         1.413493
