19
Iteration:  3098
 C        -0.123705        -0.090313         0.393727
 C         1.289546        -0.572368         0.434458
 O         2.254138        -0.280018        -0.643838
 C         3.057925        -0.818704         0.443763
 C         1.991957        -1.931473         0.596519
 C         1.970296        -2.645299         1.949582
 C         2.445090        -1.700320         3.031015
 O         2.145910        -0.249458         2.845870
 C         2.287746         0.073595         1.416771
 H        -0.326385        -0.212703         1.518219
 H        -0.097986         1.027381         0.327113
 H        -0.723295        -0.412828        -0.434921
 H         4.159262        -0.992432         0.271157
 H         1.870267        -2.655796        -0.253089
 H         1.017294        -3.278691         2.070456
 H         2.685800        -3.458349         1.869165
 H         1.992514        -1.813825         3.947428
 H         3.485665        -1.828593         3.106815
 H         2.436421         1.104483         1.338846
