19
Iteration:  3481
 C        -0.214363        -0.227587         0.406664
 C         1.324273        -0.513002         0.403863
 O         2.241522        -0.181636        -0.714996
 C         3.137410        -0.820356         0.443420
 C         1.988490        -1.898080         0.623547
 C         1.858813        -2.590710         2.043673
 C         2.372018        -1.699687         3.119581
 O         2.255867        -0.310274         2.732124
 C         2.395137         0.070844         1.410012
 H        -0.543749        -0.248372         1.469120
 H        -0.368207         0.819777         0.101002
 H        -0.854358        -0.980320        -0.048081
 H         4.196046        -1.007756         0.173388
 H         1.958958        -2.727528        -0.092942
 H         0.812220        -2.753146         2.061656
 H         2.490178        -3.513427         2.125680
 H         1.791521        -1.879800         3.951821
 H         3.370211        -1.951229         3.357863
 H         2.781718         1.049038         1.393141
