19
Iteration:  3991
 C        -0.215667        -0.005975         0.309587
 C         1.269230        -0.639320         0.456565
 O         2.259687        -0.279400        -0.620094
 C         3.069012        -0.923375         0.379215
 C         1.974908        -2.023955         0.584759
 C         1.992308        -2.540035         2.054157
 C         2.631675        -1.569177         3.064609
 O         2.073389        -0.267906         2.831568
 C         2.314544        -0.025262         1.372414
 H        -0.617043         0.330388         1.313729
 H         0.052670         0.951045        -0.246114
 H        -0.912078        -0.744133        -0.192380
 H         4.196635        -1.082432         0.336354
 H         1.570655        -2.770363        -0.132906
 H         1.030279        -2.610936         2.534324
 H         2.300051        -3.535189         2.218192
 H         2.371739        -1.870835         4.133595
 H         3.703266        -1.412911         2.949120
 H         2.470410         1.010106         1.227980
