19
Iteration:  2421charge 0 multiplicity 1
 C        -0.143256        -0.006458         0.258072
 C         1.261699        -0.564796         0.415898
 O         2.224209        -0.258766        -0.747498
 C         3.043672        -0.761343         0.426138
 C         2.006702        -1.968592         0.702426
 C         1.847305        -2.654487         2.079003
 C         2.583737        -1.816563         3.136038
 O         2.244595        -0.321479         2.781004
 C         2.276445         0.085453         1.461724
 H        -0.620940        -0.342160         1.220681
 H        -0.055759         1.114002         0.317483
 H        -0.785631        -0.333633        -0.624863
 H         4.158121        -0.682386         0.163315
 H         2.042347        -2.568313        -0.265020
 H         0.638885        -2.679257         2.253558
 H         2.250891        -3.660404         2.019572
 H         2.175018        -1.970608         4.160989
 H         3.648885        -1.800433         3.146807
 H         2.463383         1.230417         1.500087
