19
Iteration:   843
 C        -0.184244        -0.101148         0.354342
 C         1.327149        -0.527549         0.489640
 O         2.293495        -0.231937        -0.700150
 C         3.109260        -0.957750         0.403141
 C         1.792946        -1.921952         0.642390
 C         1.860527        -2.619796         2.051508
 C         2.484805        -1.639029         3.047309
 O         2.205272        -0.244869         2.825921
 C         2.409055         0.053177         1.421992
 H        -0.664654        -0.171584         1.314914
 H        -0.454713         0.865879         0.030493
 H        -0.444073        -0.882517        -0.313237
 H         4.080050        -1.192648        -0.135559
 H         1.625500        -2.689318        -0.089665
 H         1.011154        -3.177882         2.351546
 H         2.771877        -3.289100         1.867166
 H         2.266407        -1.943501         4.036273
 H         3.499322        -1.628993         2.944121
 H         2.663936         1.099816         1.243944
