19
Iteration:  4164charge 0 multiplicity 1
 C        -0.180978        -0.004420         0.173927
 C         1.285158        -0.513204         0.468428
 O         2.156824        -0.358366        -0.625389
 C         3.023601        -0.951949         0.375051
 C         1.958014        -1.998583         0.703345
 C         1.991810        -2.621744         2.135148
 C         2.653762        -1.571897         3.042594
 O         2.152165        -0.273861         2.766906
 C         2.285735         0.045239         1.457334
 H        -0.916656        -0.140853         0.932419
 H         0.036922         1.037816         0.181966
 H        -0.501760        -0.332435        -0.801158
 H         4.069155        -1.007915         0.182779
 H         1.707493        -2.669235        -0.111379
 H         0.960290        -2.771222         2.393233
 H         2.587287        -3.523303         2.096862
 H         2.437201        -1.816997         4.137534
 H         3.770805        -1.546577         3.192284
 H         2.623514         1.066245         1.444859
