19
Iteration:  3960
 C        -0.167310        -0.085833         0.237791
 C         1.247237        -0.515406         0.376196
 O         2.247822        -0.340298        -0.656553
 C         3.052650        -0.862788         0.455295
 C         1.895927        -1.918974         0.737241
 C         1.955706        -2.613484         2.133625
 C         2.600508        -1.642047         2.999437
 O         2.158069        -0.301795         2.812777
 C         2.325753         0.092821         1.397531
 H        -0.618491        -0.217043         1.197402
 H        -0.247097         0.936807        -0.154613
 H        -0.818856        -0.500857        -0.534123
 H         4.169870        -1.046096         0.383392
 H         1.520753        -2.724295         0.095619
 H         1.053663        -3.046636         2.552843
 H         2.619897        -3.480086         1.998375
 H         2.549286        -1.852593         4.092847
 H         3.792200        -1.587067         2.712900
 H         2.485470         1.125766         1.294285
