19
Iteration:  1227
 C        -0.276791        -0.064412         0.339131
 C         1.205001        -0.553880         0.382031
 O         2.257154        -0.264275        -0.696468
 C         3.132090        -0.934130         0.442131
 C         2.046778        -2.038371         0.653399
 C         1.876801        -2.547572         2.024982
 C         2.503615        -1.667501         3.037174
 O         2.272916        -0.197047         2.876282
 C         2.349156         0.027467         1.424537
 H        -0.813111        -0.622584         1.093692
 H        -0.153082         1.013260         0.449783
 H        -0.765106        -0.235863        -0.627177
 H         4.154788        -0.978576        -0.018005
 H         1.850760        -2.713718        -0.165823
 H         0.822470        -2.595689         2.254338
 H         2.013561        -3.671578         2.217681
 H         2.145701        -1.980398         4.029825
 H         3.503354        -1.778381         3.015298
 H         2.655867         1.074723         1.416798
