19
Iteration:   747
 C        -0.217768        -0.250558         0.213228
 C         1.251642        -0.438558         0.444033
 O         2.350168        -0.201605        -0.655851
 C         2.939065        -0.949762         0.364468
 C         1.773527        -1.878619         0.635376
 C         1.800609        -2.505172         2.031344
 C         2.607748        -1.669789         3.109189
 O         2.348380        -0.269299         2.873370
 C         2.451896         0.023796         1.479234
 H        -0.644293        -0.852044         1.024469
 H        -0.655385         0.781579         0.250924
 H        -0.331235        -0.779117        -0.790023
 H         3.912030        -1.349202         0.097570
 H         1.565014        -2.590306        -0.175548
 H         0.724023        -2.700604         2.437192
 H         2.283581        -3.436534         1.959489
 H         2.283989        -1.873544         4.144530
 H         3.731142        -1.937820         3.003999
 H         2.611918         1.093219         1.431237
