19
Iteration:   449charge 0 multiplicity 1
 C        -0.215856        -0.264837         0.314709
 C         1.269470        -0.476742         0.511931
 O         2.374335        -0.220881        -0.702847
 C         3.034947        -1.030126         0.412913
 C         1.769851        -1.876387         0.651969
 C         1.780575        -2.566925         1.959344
 C         2.535212        -1.631324         3.016353
 O         2.323153        -0.218024         2.849078
 C         2.433652         0.094018         1.466448
 H        -0.643487         0.142969         1.302898
 H        -0.315996         0.580933        -0.381861
 H        -0.634630        -1.261708         0.164431
 H         4.128605        -1.376888         0.423648
 H         1.445341        -2.516143        -0.163792
 H         0.782336        -2.742944         2.329355
 H         2.451888        -3.431438         1.862572
 H         2.117035        -1.922977         3.940088
 H         3.512293        -1.813920         3.037037
 H         2.640744         1.186755         1.324253
