19
Iteration:   571charge 0 multiplicity 1
 C        -0.120598        -0.212755         0.222078
 C         1.314766        -0.462929         0.441284
 O         2.214549        -0.257985        -0.638709
 C         2.959568        -0.929542         0.400461
 C         1.875889        -1.943092         0.648872
 C         1.680084        -2.519223         2.045871
 C         2.640276        -1.690849         3.074081
 O         2.336370        -0.257708         2.879828
 C         2.406561         0.105127         1.453508
 H        -0.707151        -0.888012         0.937769
 H        -0.420470         0.875992         0.430199
 H        -0.389643        -0.534723        -0.842924
 H         4.086353        -1.149085         0.198156
 H         1.699056        -2.611463        -0.215120
 H         0.650041        -2.631046         2.385036
 H         2.131151        -3.535572         2.060007
 H         2.540921        -1.854072         4.156176
 H         3.791383        -1.956559         2.701139
 H         2.657170         1.167652         1.088166
