19
Iteration:  4438
 C        -0.206381        -0.348057         0.327118
 C         1.285160        -0.533207         0.492314
 O         2.285665        -0.267300        -0.697892
 C         3.044685        -0.833273         0.347979
 C         1.954693        -1.870420         0.672133
 C         1.731200        -2.545435         1.984583
 C         2.356758        -1.667968         3.114018
 O         2.445949        -0.178435         2.814866
 C         2.445297         0.060011         1.408572
 H        -0.525576        -0.378826         1.399251
 H        -0.506554         0.635542        -0.146247
 H        -0.634488        -1.288739        -0.066145
 H         4.097217        -0.811165         0.074074
 H         1.672355        -2.495766        -0.203574
 H         0.706083        -2.770950         2.222145
 H         2.185495        -3.597422         2.161090
 H         1.932299        -1.783172         4.145651
 H         3.425622        -1.846805         3.234809
 H         2.547550         1.123848         1.326492
