19
Iteration:  2525charge 0 multiplicity 1
 C        -0.118685        -0.123761         0.338757
 C         1.306325        -0.584572         0.455636
 O         2.130130        -0.200318        -0.660006
 C         3.130075        -0.769639         0.406505
 C         2.126387        -1.983116         0.672788
 C         1.758527        -2.560956         2.017095
 C         2.440074        -1.708966         2.999526
 O         2.261762        -0.318727         2.790341
 C         2.326872         0.043080         1.497118
 H        -0.666169        -0.407723         1.201150
 H         0.084753         0.924924         0.183474
 H        -0.447841        -0.543912        -0.622640
 H         4.198088        -0.800698         0.303274
 H         2.007369        -2.642855        -0.190401
 H         0.568074        -2.745391         2.041426
 H         2.100524        -3.689177         2.014162
 H         2.087880        -2.083798         4.007359
 H         3.603580        -1.780929         3.020127
 H         2.488378         1.118956         1.492455
