19
Iteration:  3442charge 0 multiplicity 1
 C        -0.129169        -0.069710         0.336278
 C         1.281890        -0.587954         0.427200
 O         2.192305        -0.257755        -0.639959
 C         3.079787        -0.925825         0.462889
 C         1.998382        -1.976435         0.607630
 C         1.932595        -2.595917         1.982490
 C         2.515832        -1.614104         2.955525
 O         2.084360        -0.244857         2.840543
 C         2.383972         0.022524         1.475781
 H        -0.705431        -0.533041         1.135565
 H        -0.092384         1.020181         0.452084
 H        -0.634638        -0.247991        -0.664745
 H         4.152857        -1.088711         0.364772
 H         1.869247        -2.569161        -0.310865
 H         0.906303        -3.007407         2.452427
 H         2.627382        -3.457652         2.041602
 H         2.314263        -1.878734         4.099584
 H         3.681093        -1.608303         3.014099
 H         2.618275         1.168266         1.414646
