19
Iteration:   153
 C        -0.197579        -0.118864         0.321814
 C         1.296683        -0.467585         0.511589
 O         2.270997        -0.305956        -0.617197
 C         3.040649        -0.963246         0.430929
 C         1.885000        -1.960885         0.643064
 C         1.820926        -2.525272         1.997112
 C         2.507379        -1.615922         2.956707
 O         2.287934        -0.251674         2.810238
 C         2.452229         0.043115         1.414084
 H        -0.719198        -0.411946         1.220299
 H        -0.469257         0.949629         0.183578
 H        -0.676426        -0.751366        -0.434050
 H         4.097373        -1.101009         0.293363
 H         1.703879        -2.718067        -0.070436
 H         0.736061        -2.616012         2.227918
 H         2.175953        -3.626266         2.115513
 H         2.059137        -1.934853         3.929456
 H         3.685733        -1.844830         3.024760
 H         2.737587         1.071998         1.300722
