19
Iteration:   172
 C        -0.083048        -0.058235         0.319944
 C         1.273372        -0.613849         0.446424
 O         2.184092        -0.229240        -0.700685
 C         3.108159        -0.865591         0.402562
 C         1.988430        -1.929833         0.628120
 C         1.724725        -2.590508         2.131989
 C         2.533101        -1.707582         3.136058
 O         2.310866        -0.287677         2.764415
 C         2.296243         0.035357         1.395524
 H        -0.526639         0.064536         1.288845
 H         0.231198         0.933891        -0.025024
 H        -0.840559        -0.693946        -0.260526
 H         4.142208        -1.020807         0.058575
 H         1.964359        -2.605949        -0.262729
 H         0.581701        -2.700463         2.288712
 H         2.085503        -3.645090         2.105967
 H         2.453542        -1.784214         4.252159
 H         3.512814        -1.885822         2.884007
 H         2.316820         1.157662         1.305434
