19
Iteration:   217
 C        -0.170950        -0.075572         0.240803
 C         1.245069        -0.488793         0.491563
 O         2.230350        -0.250807        -0.631407
 C         3.027309        -0.981952         0.424751
 C         1.923768        -1.914404         0.730504
 C         1.831083        -2.607707         1.990470
 C         2.539508        -1.666676         3.001111
 O         2.312347        -0.270897         2.829813
 C         2.395377         0.060788         1.418411
 H        -0.572295         0.390987         1.116316
 H        -0.197602         0.638925        -0.585974
 H        -0.758974        -1.010317         0.135396
 H         4.047231        -1.313857         0.512694
 H         1.738851        -2.508370        -0.140679
 H         0.742224        -2.828540         2.237087
 H         2.386448        -3.586961         1.921911
 H         2.226240        -1.782126         4.060510
 H         3.533965        -1.882405         2.957402
 H         2.610732         1.112042         1.225429
