19
Iteration:  1906
 C        -0.069666        -0.019848         0.287342
 C         1.279380        -0.548037         0.460079
 O         2.201855        -0.286133        -0.654546
 C         3.065739        -0.870641         0.442872
 C         1.940768        -1.973761         0.598621
 C         1.895710        -2.563319         2.027378
 C         2.623784        -1.636630         3.044825
 O         2.170524        -0.291880         2.844161
 C         2.279856        -0.024918         1.459517
 H        -0.638188        -0.167858         1.224405
 H        -0.141057         1.024294        -0.099527
 H        -0.582369        -0.662329        -0.472352
 H         4.116099        -0.772985         0.220897
 H         1.785216        -2.681248        -0.267304
 H         0.699248        -2.631223         2.303503
 H         2.186272        -3.673877         2.038132
 H         2.230814        -2.048921         4.061116
 H         3.709254        -1.807968         2.845090
 H         2.421012         1.102475         1.451335
