19
Iteration:  3968charge 0 multiplicity 1
 C        -0.165659        -0.056560         0.251953
 C         1.299294        -0.516207         0.359085
 O         2.283386        -0.282739        -0.684902
 C         2.988840        -0.915184         0.454602
 C         1.885533        -1.964572         0.755217
 C         1.977650        -2.595548         2.113985
 C         2.648168        -1.611555         3.053841
 O         2.138716        -0.309333         2.777223
 C         2.224015         0.034083         1.401967
 H        -0.549861        -0.023442         1.332511
 H        -0.011558         1.014491        -0.012024
 H        -0.768241        -0.757925        -0.404663
 H         4.051853        -1.090313         0.185984
 H         1.765613        -2.614491        -0.137157
 H         1.054163        -2.978983         2.572620
 H         2.572006        -3.476816         2.160113
 H         2.573909        -1.800710         4.180967
 H         3.692226        -1.597517         2.745253
 H         2.496441         1.090875         1.391763
