19
Iteration:  2533charge 0 multiplicity 1
 C        -0.052535        -0.097089         0.363067
 C         1.295849        -0.666878         0.494804
 O         2.218487        -0.208943        -0.619522
 C         3.050385        -0.760759         0.368090
 C         2.079111        -1.980235         0.635629
 C         1.795666        -2.623036         1.952794
 C         2.454375        -1.675806         3.041961
 O         2.254243        -0.299004         2.802702
 C         2.272990         0.049414         1.454076
 H        -0.797244        -0.391854         1.139535
 H         0.085089         0.993753         0.357384
 H        -0.526741        -0.416837        -0.561145
 H         4.155973        -0.773449         0.145920
 H         2.056063        -2.565751        -0.259805
 H         0.679875        -2.583746         2.182965
 H         2.171627        -3.540372         2.191598
 H         2.034643        -1.926037         3.978732
 H         3.463963        -1.938644         2.980271
 H         2.296818         1.108100         1.373681
