19
Iteration:  1632
 C        -0.180438        -0.240102         0.328706
 C         1.299716        -0.634441         0.505311
 O         2.277250        -0.218870        -0.649307
 C         3.108220        -0.741713         0.387387
 C         2.014663        -1.920953         0.637732
 C         1.601486        -2.569320         2.028553
 C         2.478802        -1.713781         3.074572
 O         2.420587        -0.256508         2.787459
 C         2.301397         0.072653         1.406714
 H        -0.670757        -0.531166         1.307408
 H        -0.231296         0.894681         0.103853
 H        -0.627186        -0.642916        -0.580225
 H         4.150286        -0.761894         0.189610
 H         2.119895        -2.669452        -0.177842
 H         0.563271        -2.664220         2.341342
 H         1.970738        -3.558801         2.126080
 H         2.302176        -1.907229         4.194983
 H         3.448204        -1.904066         2.848838
 H         2.262647         1.113048         1.192099
