19
Iteration:  4406charge 0 multiplicity 1
 C        -0.165351        -0.288304         0.221459
 C         1.274241        -0.515923         0.442610
 O         2.217360        -0.279564        -0.609646
 C         3.034240        -0.853192         0.451424
 C         1.940341        -1.914736         0.682129
 C         1.733155        -2.478623         2.049512
 C         2.548414        -1.628929         3.063709
 O         2.390800        -0.257420         2.780766
 C         2.406868         0.026268         1.440283
 H        -0.605917        -0.779143         1.093167
 H        -0.595164         0.729115         0.133427
 H        -0.688381        -0.767447        -0.612821
 H         4.103748        -0.902593         0.099414
 H         1.745672        -2.570835        -0.180422
 H         0.664089        -2.351410         2.338480
 H         2.084144        -3.625501         2.160280
 H         2.200902        -1.769153         4.102388
 H         3.593961        -1.804393         2.929934
 H         2.444079         1.064533         1.171677
