19
Iteration:   192
 C        -0.112136         0.048564         0.286977
 C         1.232142        -0.629893         0.395620
 O         2.222387        -0.293762        -0.737092
 C         3.046244        -0.742539         0.328702
 C         2.008608        -2.072256         0.714900
 C         1.814475        -2.521650         2.088901
 C         2.549657        -1.730419         3.074113
 O         2.321639        -0.337562         2.854283
 C         2.261416         0.016044         1.461108
 H        -0.453535         0.416470         1.271299
 H         0.136368         0.881250        -0.404498
 H        -0.845924        -0.802313         0.039891
 H         4.155587        -0.666862         0.096430
 H         1.789576        -2.725628        -0.198479
 H         0.736109        -2.404036         2.419693
 H         2.039280        -3.518307         2.250543
 H         2.041937        -1.921292         4.043750
 H         3.612530        -1.935585         3.203012
 H         2.413659         1.143285         1.379535
