19
Iteration:  1267
 C        -0.140091        -0.326236         0.307297
 C         1.351591        -0.391409         0.442683
 O         2.242310        -0.188945        -0.651149
 C         3.082857        -0.942631         0.382799
 C         1.835213        -1.875788         0.711725
 C         1.795884        -2.627119         2.053568
 C         2.424588        -1.687120         3.023074
 O         2.294711        -0.260670         2.791545
 C         2.478981         0.140558         1.441647
 H        -0.696575        -0.272477         1.276774
 H        -0.574758         0.570460        -0.138189
 H        -0.572387        -1.160773        -0.274548
 H         4.178475        -1.189841         0.274087
 H         1.393365        -2.520010        -0.137708
 H         0.667660        -2.744463         2.277296
 H         2.351713        -3.558145         2.072711
 H         2.157489        -1.801565         4.025563
 H         3.643362        -1.948761         3.020101
 H         2.847449         1.132818         1.188093
