19
Iteration:  2101
 C        -0.152283        -0.112634         0.258507
 C         1.278831        -0.526198         0.453339
 O         2.253169        -0.261298        -0.638092
 C         3.024054        -0.844199         0.458417
 C         1.877422        -1.924436         0.637942
 C         1.870915        -2.580093         1.990408
 C         2.505897        -1.678433         3.019889
 O         2.318929        -0.316180         2.814528
 C         2.322934         0.065997         1.503097
 H        -0.582082        -0.149643         1.255303
 H        -0.154778         0.893773        -0.189301
 H        -0.606605        -0.813598        -0.429403
 H         4.070221        -0.916092         0.369074
 H         1.734659        -2.581041        -0.284877
 H         0.830024        -2.977378         2.360425
 H         2.329069        -3.646507         1.950533
 H         2.229059        -1.819645         4.118000
 H         3.623605        -1.867609         3.044682
 H         2.572351         1.106844         1.308565
