19
Iteration:  4791charge 0 multiplicity 1
 C        -0.214218        -0.363976         0.222553
 C         1.270596        -0.564618         0.410680
 O         2.276909        -0.146180        -0.614844
 C         3.077624        -0.872969         0.442297
 C         1.858105        -1.871648         0.572074
 C         1.739042        -2.413486         2.074448
 C         2.566794        -1.700145         2.992647
 O         2.388622        -0.276622         2.919739
 C         2.352582         0.027375         1.451648
 H        -0.803958        -1.054840         0.965857
 H        -0.310739         0.661510         0.650785
 H        -0.538155        -0.525735        -0.850556
 H         4.217589        -1.005730         0.177831
 H         1.908866        -2.732425        -0.166242
 H         0.692824        -2.410408         2.332100
 H         1.822506        -3.516497         1.912512
 H         2.305742        -1.867951         4.029498
 H         3.603234        -1.965792         2.965773
 H         2.584991         1.092012         1.296359
