19
Iteration:  4681
 C        -0.105363        -0.029992         0.421062
 C         1.298423        -0.547051         0.441468
 O         2.200727        -0.327556        -0.779250
 C         3.109602        -0.860328         0.393548
 C         2.019149        -2.007907         0.596220
 C         1.969649        -2.667875         2.011127
 C         2.496123        -1.676570         3.090546
 O         2.072963        -0.249039         2.848645
 C         2.311571         0.127707         1.431614
 H        -0.307630         0.252072         1.514076
 H        -0.202519         0.954668        -0.089598
 H        -0.964729        -0.663859         0.039412
 H         4.244634        -0.994142         0.248827
 H         1.776287        -2.795566        -0.162406
 H         0.998741        -2.827277         2.345590
 H         2.534910        -3.652202         1.934139
 H         2.118243        -1.870587         4.089569
 H         3.586136        -1.647455         3.110100
 H         2.572724         1.198465         1.409923
