19
Iteration:  2698
 C        -0.189759        -0.151162         0.270886
 C         1.309600        -0.497342         0.451619
 O         2.285563        -0.157960        -0.605842
 C         3.108843        -0.903885         0.371699
 C         1.868365        -1.905980         0.627050
 C         1.887144        -2.603435         2.010672
 C         2.470704        -1.707890         3.077672
 O         2.279367        -0.305750         2.827423
 C         2.296055         0.032331         1.457175
 H        -0.641188        -0.352615         1.371246
 H        -0.423821         0.901544        -0.081927
 H        -0.450096        -0.947846        -0.551707
 H         4.259195        -1.031419         0.294363
 H         1.737921        -2.573057        -0.258314
 H         0.761878        -2.891009         2.108748
 H         2.413156        -3.519237         1.898129
 H         2.072101        -1.888796         4.153156
 H         3.670119        -1.732204         3.184161
 H         2.483794         1.094732         1.321835
