19
Iteration:   176charge 0 multiplicity 1
 C        -0.054877        -0.057644         0.306631
 C         1.288530        -0.629375         0.467411
 O         2.188086        -0.225991        -0.721474
 C         3.075799        -0.834037         0.366146
 C         1.991321        -1.930578         0.627794
 C         1.724713        -2.599020         2.146146
 C         2.523637        -1.701201         3.143893
 O         2.316531        -0.301893         2.792228
 C         2.275124         0.036977         1.375918
 H        -0.423903         0.174793         1.334017
 H         0.108500         0.958887        -0.127248
 H        -0.815425        -0.533320        -0.230992
 H         4.122169        -0.995887         0.138435
 H         2.011194        -2.730616        -0.074177
 H         0.662668        -2.655945         2.242480
 H         2.041167        -3.717330         2.137504
 H         2.405000        -1.825130         4.221566
 H         3.679149        -1.958319         2.852925
 H         2.176531         1.093712         1.347373
