19
Iteration:   580
 C        -0.134084        -0.145413         0.189981
 C         1.243908        -0.566418         0.524537
 O         2.192473        -0.258760        -0.653939
 C         3.075983        -0.817883         0.488171
 C         1.921894        -1.982071         0.670283
 C         1.655439        -2.529877         2.059907
 C         2.616920        -1.660171         3.041995
 O         2.403715        -0.283606         2.814493
 C         2.352279         0.040610         1.414923
 H        -0.660576        -0.767924         1.001192
 H        -0.496915         0.921606         0.276193
 H        -0.498218        -0.427296        -0.821722
 H         4.150938        -0.903307         0.112181
 H         1.853783        -2.695809        -0.158806
 H         0.555894        -2.507597         2.318428
 H         1.837560        -3.548525         2.125605
 H         2.549049        -1.894567         4.080251
 H         3.687363        -1.916699         2.709295
 H         2.629784         1.141459         1.299822
