19
Iteration:  1737charge 0 multiplicity 1
 C        -0.115194        -0.028459         0.205855
 C         1.260453        -0.572568         0.459815
 O         2.210521        -0.278164        -0.681644
 C         3.027490        -0.820671         0.352675
 C         2.010585        -1.886018         0.711133
 C         1.821502        -2.657145         2.071377
 C         2.616288        -1.753989         3.095836
 O         2.219046        -0.301435         2.850531
 C         2.311522         0.082823         1.445047
 H        -0.709613        -0.225507         1.064403
 H        -0.112800         1.015111         0.133394
 H        -0.683698        -0.571926        -0.500918
 H         4.089647        -0.929099        -0.037558
 H         1.900496        -2.592742        -0.151610
 H         0.750635        -2.621440         2.392377
 H         2.325703        -3.645621         2.191216
 H         2.358695        -1.975713         4.076569
 H         3.663879        -1.911915         3.017477
 H         2.283712         1.150960         1.197485
