19
Iteration:  3630
 C        -0.193330        -0.039111         0.222890
 C         1.245275        -0.472804         0.476250
 O         2.249900        -0.325821        -0.727314
 C         3.026972        -0.909154         0.440960
 C         1.958522        -1.904635         0.667275
 C         2.008647        -2.585155         2.040354
 C         2.577098        -1.674529         3.126165
 O         2.173100        -0.335052         2.822754
 C         2.298710         0.086718         1.408083
 H        -0.653665        -0.818003         0.868733
 H        -0.396749         0.959977         0.601381
 H        -0.532695         0.018738        -0.782505
 H         4.090527        -1.086866         0.155276
 H         1.670042        -2.612358        -0.077349
 H         1.021450        -2.800989         2.484390
 H         2.498453        -3.614967         1.900626
 H         2.083660        -2.036819         4.106079
 H         3.646405        -1.778555         3.330593
 H         2.671583         1.115297         1.481969
