19
Iteration:  1073
 C        -0.236166        -0.218355         0.370986
 C         1.268114        -0.505994         0.480542
 O         2.308382        -0.195214        -0.629586
 C         3.091667        -0.898730         0.432611
 C         1.930481        -1.936590         0.625668
 C         1.796702        -2.597831         2.042707
 C         2.429641        -1.679015         3.084848
 O         2.268268        -0.267666         2.728336
 C         2.502326         0.082117         1.376654
 H        -0.624668         0.020120         1.414593
 H        -0.562064         0.697305        -0.169172
 H        -0.829321        -1.101136        -0.009281
 H         4.165944        -0.998073         0.098038
 H         1.722384        -2.492168        -0.278283
 H         0.792580        -2.800394         2.198025
 H         2.413752        -3.554624         2.026489
 H         2.046540        -1.783091         4.112211
 H         3.503475        -1.872872         3.041454
 H         2.689326         1.134870         1.200818
