19
Iteration:  1456charge 0 multiplicity 1
 C        -0.202912        -0.339608         0.313559
 C         1.299305        -0.428908         0.430814
 O         2.294320        -0.183638        -0.595731
 C         3.018855        -0.968470         0.434851
 C         1.865906        -1.891787         0.618106
 C         1.771444        -2.480951         1.949644
 C         2.478746        -1.640813         3.089124
 O         2.333221        -0.242286         2.788850
 C         2.444870         0.022815         1.439496
 H        -0.478691        -0.660129         1.354853
 H        -0.440154         0.672144        -0.060485
 H        -0.496124        -1.187377        -0.317926
 H         4.054414        -1.253432         0.079570
 H         1.691108        -2.548711        -0.275175
 H         0.724833        -2.615703         2.345341
 H         2.281050        -3.484298         2.038089
 H         2.120598        -1.684750         4.145351
 H         3.598917        -1.995545         3.134501
 H         2.723848         1.103235         1.342253
