19
Iteration:  2845charge 0 multiplicity 1
 C        -0.178293        -0.205755         0.162063
 C         1.232899        -0.525632         0.433326
 O         2.208264        -0.159328        -0.640738
 C         3.091293        -0.791104         0.367209
 C         1.938756        -1.879434         0.620141
 C         1.809471        -2.551813         2.006818
 C         2.611290        -1.767658         3.115222
 O         2.305303        -0.369688         2.951450
 C         2.301244         0.033025         1.468518
 H        -0.672074        -0.017714         1.147897
 H        -0.215956         0.729874        -0.425021
 H        -0.542376        -1.016949        -0.572774
 H         4.155273        -0.845269         0.171932
 H         1.963586        -2.554753        -0.292406
 H         0.755714        -2.609163         2.373299
 H         2.215208        -3.561993         2.000441
 H         2.204621        -1.842492         4.132044
 H         3.695186        -1.929442         3.166806
 H         2.475365         1.160832         1.436539
