19
Iteration:  1810
 C        -0.120821        -0.236102         0.318446
 C         1.308007        -0.581433         0.472996
 O         2.175889        -0.230292        -0.617404
 C         3.093943        -0.792005         0.407258
 C         2.034374        -1.857207         0.672825
 C         1.729920        -2.524892         1.994681
 C         2.458845        -1.700430         3.061583
 O         2.361009        -0.315402         2.733093
 C         2.324289         0.053978         1.448779
 H        -0.781806        -0.614220         1.163813
 H        -0.148215         0.907267         0.302987
 H        -0.514469        -0.803090        -0.645995
 H         4.162433        -0.989607         0.107355
 H         2.070293        -2.692628        -0.015751
 H         0.735797        -2.203838         2.296789
 H         1.744659        -3.642363         2.092377
 H         2.041944        -1.913748         4.117917
 H         3.608042        -2.055491         3.112751
 H         2.484615         1.186242         1.279985
