19
Iteration:  1953
 C        -0.152606        -0.255546         0.250319
 C         1.256364        -0.482881         0.483592
 O         2.251847        -0.228871        -0.667314
 C         3.005561        -0.863759         0.432551
 C         1.881921        -1.916424         0.628569
 C         1.756471        -2.526033         2.028553
 C         2.552082        -1.699827         3.026017
 O         2.364029        -0.307810         2.828111
 C         2.390001         0.115166         1.497787
 H        -0.634435        -0.533791         1.225974
 H        -0.300509         0.789338        -0.080088
 H        -0.468635        -0.921910        -0.640721
 H         4.108389        -1.101090         0.378713
 H         1.826643        -2.551009        -0.215747
 H         0.613714        -2.636505         2.230892
 H         2.080920        -3.518521         1.974295
 H         2.152269        -1.823264         4.016915
 H         3.640870        -1.914693         2.978578
 H         2.783920         1.142188         1.575120
