19
Iteration:  3292
 C        -0.136283        -0.132204         0.421304
 C         1.333210        -0.508441         0.443500
 O         2.226765        -0.187582        -0.639535
 C         3.089173        -0.859994         0.444176
 C         2.016254        -1.987614         0.594685
 C         1.921485        -2.688970         1.967862
 C         2.447253        -1.700190         3.041594
 O         2.113585        -0.264895         2.761734
 C         2.362717         0.074856         1.425492
 H        -0.524297        -0.236504         1.473841
 H        -0.254510         0.950026         0.229583
 H        -0.846131        -0.766531        -0.174843
 H         4.126691        -1.009114         0.047489
 H         1.868202        -2.612789        -0.276361
 H         0.868208        -2.885905         2.231739
 H         2.685423        -3.579658         2.054647
 H         1.972491        -1.697576         4.053569
 H         3.631017        -1.639853         3.190018
 H         2.550264         1.136534         1.331509
