19
Iteration:   397charge 0 multiplicity 1
 C        -0.127651        -0.045018         0.259000
 C         1.242595        -0.634714         0.385480
 O         2.228046        -0.293584        -0.696658
 C         3.024565        -0.766018         0.393103
 C         2.012778        -1.966093         0.673973
 C         1.724473        -2.520709         2.101509
 C         2.605494        -1.771490         3.140342
 O         2.397614        -0.280797         2.863493
 C         2.207893         0.040411         1.383919
 H        -0.570335        -0.024689         1.256120
 H         0.000817         0.970042        -0.097908
 H        -0.592238        -0.615796        -0.562463
 H         4.126191        -0.875910         0.054663
 H         1.751349        -2.603472        -0.199007
 H         0.674041        -2.297060         2.377334
 H         1.869053        -3.711324         2.290254
 H         2.317088        -1.962235         4.185757
 H         3.834697        -2.116183         2.960897
 H         2.232971         1.174860         1.202321
