19
Iteration:  3955
 C        -0.165972        -0.091261         0.204333
 C         1.197878        -0.525077         0.444310
 O         2.232376        -0.373951        -0.663724
 C         3.103037        -0.864325         0.459054
 C         1.883090        -1.911141         0.718916
 C         1.932655        -2.644836         2.129356
 C         2.635245        -1.628492         2.986060
 O         2.166072        -0.274729         2.815366
 C         2.370849         0.120275         1.431516
 H        -0.779948        -0.291331         1.168807
 H        -0.351976         0.984559        -0.040653
 H        -0.756823        -0.625457        -0.601031
 H         4.163244        -0.965304         0.396540
 H         1.605716        -2.697752        -0.015685
 H         0.874361        -2.936775         2.396017
 H         2.664169        -3.413093         1.815173
 H         2.492225        -1.885236         4.057147
 H         3.636033        -1.723314         2.857013
 H         2.525997         1.255987         1.244235
