19
Iteration:  2922charge 0 multiplicity 1
 C        -0.162493        -0.081805         0.399106
 C         1.281160        -0.581221         0.400289
 O         2.257168        -0.201949        -0.682372
 C         3.117635        -0.783570         0.364435
 C         2.030127        -1.960113         0.615459
 C         1.890846        -2.574529         1.979346
 C         2.554613        -1.762686         3.169797
 O         2.090268        -0.333261         2.781766
 C         2.329316         0.021921         1.449225
 H        -0.750101        -0.504950         1.283231
 H        -0.038670         1.008932         0.410293
 H        -0.750175        -0.565185        -0.456093
 H         4.202365        -0.849407         0.143101
 H         1.980793        -2.718195        -0.251246
 H         0.798505        -2.548319         2.062192
 H         2.245566        -3.534784         2.058084
 H         2.152707        -1.727289         4.159186
 H         3.597218        -1.700703         3.143871
 H         2.438560         1.151929         1.505305
