19
Iteration:  3458
 C        -0.083649        -0.136319         0.401101
 C         1.386648        -0.491668         0.524555
 O         2.246557        -0.312260        -0.709413
 C         3.120877        -0.850542         0.324816
 C         1.939593        -1.915866         0.629875
 C         1.929227        -2.626321         1.979271
 C         2.464336        -1.678921         3.118248
 O         2.064696        -0.267259         2.834045
 C         2.328708         0.086512         1.421641
 H        -0.735733        -0.459005         1.264773
 H        -0.202939         0.971267         0.350475
 H        -0.562429        -0.673091        -0.403890
 H         4.161723        -0.867609        -0.105645
 H         1.658989        -2.651199        -0.128034
 H         0.872800        -2.762358         2.079800
 H         2.530431        -3.528553         1.867869
 H         2.147982        -1.977786         4.055554
 H         3.518676        -1.728284         3.087597
 H         2.530897         1.094567         1.328435
