19
Iteration:  1010charge 0 multiplicity 1
 C        -0.105402        -0.029049         0.322685
 C         1.274117        -0.558582         0.358744
 O         2.144219        -0.224236        -0.659542
 C         3.061558        -0.907409         0.564543
 C         2.011852        -2.023457         0.661739
 C         1.850673        -2.584603         2.089121
 C         2.535237        -1.681187         3.042525
 O         2.325858        -0.291732         2.713375
 C         2.252152         0.060845         1.355659
 H        -0.653235        -0.485999         1.139531
 H        -0.077785         1.060755         0.559885
 H        -0.513141        -0.251313        -0.679510
 H         4.156274        -0.944150         0.490639
 H         1.909334        -2.759634        -0.127139
 H         0.745266        -2.652000         2.390181
 H         2.308980        -3.560778         2.271854
 H         2.162874        -1.786911         4.130718
 H         3.664291        -2.044781         3.134205
 H         2.145883         1.148542         1.263898
