19
Iteration:  3997
 C        -0.223738        -0.037197         0.308328
 C         1.274350        -0.630819         0.444904
 O         2.239544        -0.293400        -0.619924
 C         3.113196        -0.919308         0.371715
 C         1.962093        -2.029736         0.671425
 C         1.980437        -2.516964         2.028412
 C         2.569877        -1.584823         3.054925
 O         2.094773        -0.247124         2.819186
 C         2.318615        -0.037596         1.407724
 H        -0.585318         0.386055         1.252470
 H         0.083822         0.862837        -0.191168
 H        -0.925785        -0.712406        -0.139667
 H         4.143118        -0.913003         0.088007
 H         1.713010        -2.617890        -0.223566
 H         0.873022        -2.540474         2.348537
 H         2.543618        -3.511744         2.217955
 H         2.441882        -1.971807         4.049748
 H         3.729429        -1.549280         2.870255
 H         2.620805         1.074459         1.275215
