19
Iteration:  1752charge 0 multiplicity 1
 C        -0.170719        -0.168772         0.243359
 C         1.305488        -0.491663         0.481709
 O         2.191971        -0.193587        -0.618635
 C         3.108965        -0.891216         0.473584
 C         1.855805        -1.950282         0.646016
 C         1.828834        -2.605391         2.054238
 C         2.552381        -1.639784         3.014487
 O         2.271120        -0.307939         2.777583
 C         2.369951         0.047755         1.448488
 H        -0.788925        -0.419154         1.170859
 H        -0.168031         0.913855        -0.072490
 H        -0.429174        -0.709326        -0.686191
 H         4.139961        -1.011693         0.327219
 H         1.648511        -2.695320        -0.189558
 H         0.808219        -2.760725         2.361101
 H         2.359401        -3.535743         1.986185
 H         2.316274        -1.841881         4.150864
 H         3.716858        -1.806156         2.822389
 H         2.707839         1.073562         1.430200
