19
Iteration:  4612charge 0 multiplicity 1
 C        -0.254199        -0.374497         0.199874
 C         1.290609        -0.549674         0.530641
 O         2.245407        -0.187646        -0.631889
 C         3.079926        -0.916938         0.350599
 C         1.897680        -1.920844         0.629708
 C         1.742927        -2.425495         2.052851
 C         2.541375        -1.696516         3.061186
 O         2.417895        -0.220061         2.840347
 C         2.424488         0.065971         1.482426
 H        -0.829083        -0.960724         0.956172
 H        -0.704886         0.693937         0.312628
 H        -0.442562        -0.664658        -0.873192
 H         4.079770        -0.855048         0.125206
 H         1.607452        -2.654709        -0.155511
 H         0.639554        -2.377311         2.063881
 H         2.127687        -3.389950         2.197971
 H         2.016540        -1.845316         4.029287
 H         3.581205        -1.964487         3.111236
 H         2.581279         1.150179         1.397596
