19
Iteration:  4515charge 0 multiplicity 1
 C        -0.198243        -0.117250         0.349019
 C         1.295552        -0.505979         0.461434
 O         2.269161        -0.340608        -0.694050
 C         3.009284        -0.873510         0.422531
 C         1.929161        -1.909191         0.654477
 C         1.918390        -2.641328         2.036274
 C         2.580908        -1.632398         3.099736
 O         2.111252        -0.285127         2.770454
 C         2.397403         0.087741         1.383457
 H        -0.477700         0.038561         1.396335
 H        -0.221429         0.972966         0.009183
 H        -0.637862        -0.798292        -0.406236
 H         4.044990        -1.152619         0.312180
 H         1.654467        -2.622949        -0.153320
 H         1.009034        -2.863907         2.498178
 H         2.627635        -3.515035         1.967197
 H         2.295949        -1.657162         4.191707
 H         3.769568        -1.598227         3.127692
 H         2.584493         1.095452         1.131138
