19
Iteration:  4301
 C        -0.144272        -0.155409         0.283827
 C         1.276546        -0.612801         0.398213
 O         2.165201        -0.229415        -0.690587
 C         3.059450        -0.945881         0.370797
 C         1.999450        -1.982270         0.638126
 C         1.858749        -2.570285         2.047751
 C         2.469406        -1.588401         3.143244
 O         2.261437        -0.184192         2.808848
 C         2.394306         0.025298         1.493518
 H        -0.682304        -0.283984         1.263503
 H        -0.215850         0.942829         0.197188
 H        -0.733535        -0.727655        -0.472932
 H         4.163870        -1.073380         0.197582
 H         1.860338        -2.711805        -0.193123
 H         0.791586        -2.823527         2.269992
 H         2.344256        -3.505980         2.127140
 H         2.311438        -1.879236         4.158061
 H         3.589249        -1.649039         3.046725
 H         2.710628         1.077454         1.190296
