19
Iteration:   726
 C        -0.181137        -0.143502         0.252648
 C         1.302758        -0.498745         0.474015
 O         2.166310        -0.230759        -0.668838
 C         3.129631        -0.971138         0.378491
 C         1.945700        -1.932951         0.678079
 C         1.799238        -2.614116         2.040174
 C         2.494859        -1.676893         3.042481
 O         2.340278        -0.234840         2.849615
 C         2.345818         0.067561         1.459396
 H        -0.776623        -0.326896         1.160131
 H        -0.265709         0.967411         0.146063
 H        -0.546916        -0.764237        -0.639495
 H         4.148803        -0.965881         0.069375
 H         1.638038        -2.472555        -0.226923
 H         0.756832        -2.671285         2.348427
 H         2.300959        -3.501681         2.148222
 H         2.245192        -1.946349         4.085441
 H         3.518739        -1.898950         2.881987
 H         2.766065         1.056831         1.416946
