19
Iteration:  1633
 C        -0.177163        -0.239949         0.330196
 C         1.303733        -0.622935         0.505895
 O         2.276229        -0.220970        -0.659679
 C         3.112294        -0.743245         0.383941
 C         2.013235        -1.914549         0.630134
 C         1.604654        -2.571539         2.027815
 C         2.479553        -1.708756         3.075682
 O         2.413079        -0.262907         2.788506
 C         2.301738         0.070326         1.410435
 H        -0.657594        -0.514890         1.280112
 H        -0.302977         0.870971         0.107237
 H        -0.624624        -0.654309        -0.549675
 H         4.133975        -0.795329         0.228741
 H         2.109606        -2.653539        -0.135486
 H         0.589699        -2.645489         2.403041
 H         1.990667        -3.580421         2.150714
 H         2.292568        -1.912885         4.183824
 H         3.438267        -1.928244         2.861442
 H         2.284594         1.114320         1.222324
