19
Iteration:   918
 C        -0.205589        -0.167391         0.268304
 C         1.275734        -0.569206         0.446297
 O         2.181118        -0.291314        -0.612463
 C         3.078089        -0.824114         0.431996
 C         1.966798        -1.937931         0.590022
 C         1.736145        -2.528484         1.998263
 C         2.552286        -1.699067         3.021889
 O         2.371088        -0.216854         2.847940
 C         2.399516        -0.001493         1.476878
 H        -0.838865        -0.140020         1.269257
 H        -0.224238         0.923017        -0.063174
 H        -0.710597        -0.803367        -0.515822
 H         4.228260        -0.938392         0.389147
 H         2.088306        -2.606215        -0.286482
 H         0.702923        -2.382252         2.166321
 H         1.968942        -3.656076         2.200738
 H         2.140720        -1.984979         3.986094
 H         3.751598        -1.851689         3.152575
 H         2.358046         1.090438         1.315171
