19
Iteration:   206
 C        -0.208935        -0.010684         0.264836
 C         1.254734        -0.553911         0.454198
 O         2.176926        -0.339984        -0.650825
 C         3.114161        -0.884574         0.461762
 C         1.976819        -1.902516         0.574882
 C         1.822186        -2.562858         2.038978
 C         2.564077        -1.698787         3.129241
 O         2.312836        -0.303850         2.808602
 C         2.354309         0.022416         1.436683
 H        -0.483443         0.545226         1.130577
 H        -0.213886         0.711943        -0.563723
 H        -1.051933        -0.632819        -0.102409
 H         4.170948        -0.982224         0.188242
 H         1.946648        -2.614655        -0.210496
 H         0.694168        -2.567823         2.224749
 H         2.199628        -3.637648         2.033148
 H         2.264602        -1.868404         4.190262
 H         3.569483        -1.884922         3.071798
 H         2.473834         1.105508         1.372522
