19
Iteration:  1061charge 0 multiplicity 1
 C        -0.136213        -0.274679         0.385748
 C         1.331659        -0.445232         0.411814
 O         2.226998        -0.212668        -0.637775
 C         3.032016        -0.975118         0.373331
 C         1.891410        -1.842037         0.689066
 C         1.839098        -2.605931         1.952703
 C         2.442246        -1.614701         3.036330
 O         2.221702        -0.233447         2.774681
 C         2.467549         0.057391         1.475879
 H        -0.404815        -0.134854         1.498732
 H        -0.191206         0.643286        -0.207771
 H        -0.745730        -1.076577        -0.107646
 H         4.078569        -1.413967         0.225024
 H         1.709752        -2.603352        -0.066657
 H         0.871398        -2.908214         2.175976
 H         2.405054        -3.610594         1.889208
 H         2.075284        -1.743538         4.023279
 H         3.566035        -1.828631         3.197284
 H         2.971730         1.015680         1.464024
