19
Iteration:  3634
 C        -0.183675        -0.058746         0.232235
 C         1.240885        -0.483671         0.472863
 O         2.244404        -0.320851        -0.716406
 C         3.019368        -0.919077         0.435104
 C         1.969831        -1.902932         0.675977
 C         2.002248        -2.598786         2.055072
 C         2.532212        -1.707564         3.102197
 O         2.189157        -0.283528         2.836514
 C         2.344790         0.085400         1.406582
 H        -0.682819        -0.815007         0.854568
 H        -0.530069         0.958587         0.595094
 H        -0.581050         0.078979        -0.815056
 H         4.106745        -1.003957         0.150971
 H         1.687153        -2.650386        -0.125402
 H         1.049899        -2.967331         2.361105
 H         2.424149        -3.520353         1.897326
 H         2.093815        -2.040210         4.026747
 H         3.683188        -1.667570         3.249189
 H         2.635500         1.109152         1.506308
