19
Iteration:  1079charge 0 multiplicity 1
 C        -0.263852        -0.167096         0.381527
 C         1.271352        -0.531487         0.519188
 O         2.330154        -0.212028        -0.670661
 C         3.156099        -0.866866         0.398190
 C         1.941715        -1.955332         0.611800
 C         1.780934        -2.583051         2.053174
 C         2.431327        -1.674093         3.059164
 O         2.313059        -0.286480         2.757033
 C         2.376674         0.068124         1.386465
 H        -0.668169         0.068955         1.351215
 H        -0.619031         0.697834        -0.168911
 H        -0.591765        -1.101572        -0.026031
 H         4.206883        -0.867525         0.156747
 H         1.798319        -2.602587        -0.306424
 H         0.638150        -2.736140         2.336796
 H         2.323459        -3.501122         2.148218
 H         2.028336        -1.904915         4.048881
 H         3.603455        -1.901526         3.221977
 H         2.596463         1.132629         1.122585
