19
Iteration:  2926charge 0 multiplicity 1
 C        -0.156430        -0.100703         0.401062
 C         1.279975        -0.585522         0.431900
 O         2.262702        -0.204913        -0.666706
 C         3.104122        -0.793618         0.370372
 C         2.019419        -1.922761         0.589479
 C         1.896245        -2.575730         1.979274
 C         2.532135        -1.724453         3.139432
 O         2.115092        -0.343821         2.765602
 C         2.290682         0.029311         1.447659
 H        -0.658018        -0.518925         1.241767
 H         0.012091         0.961706         0.409356
 H        -0.630224        -0.463305        -0.442181
 H         4.224814        -0.834837         0.271217
 H         2.014299        -2.688028        -0.197239
 H         0.808461        -2.592403         2.156670
 H         2.238605        -3.677730         2.131320
 H         2.145451        -1.762227         4.175296
 H         3.656836        -1.844933         3.170514
 H         2.476941         1.069106         1.369278
