19
Iteration:  2320charge 0 multiplicity 1
 C        -0.110878        -0.147626         0.279549
 C         1.306470        -0.619687         0.422493
 O         2.230042        -0.247229        -0.607091
 C         3.051425        -0.762980         0.450021
 C         2.021070        -1.950366         0.582865
 C         1.701581        -2.537838         1.998377
 C         2.490664        -1.724170         3.009930
 O         2.407620        -0.273596         2.874329
 C         2.230959         0.044985         1.489263
 H        -0.568261        -0.238552         1.307075
 H        -0.000082         0.921013        -0.066484
 H        -0.739541        -0.873621        -0.386675
 H         4.036757        -1.103642         0.330254
 H         1.947379        -2.581684        -0.377740
 H         0.529736        -2.480296         1.899126
 H         2.146062        -3.542092         2.178316
 H         2.376305        -1.782732         4.113419
 H         3.489903        -1.988874         2.729642
 H         2.221226         1.164356         1.396478
