19
Iteration:  4793charge 0 multiplicity 1
 C        -0.211192        -0.364153         0.236136
 C         1.258317        -0.560964         0.414256
 O         2.296097        -0.157580        -0.624927
 C         3.059205        -0.862271         0.431252
 C         1.851574        -1.882639         0.576297
 C         1.746809        -2.415321         2.057819
 C         2.570407        -1.708425         3.019545
 O         2.384079        -0.264101         2.899188
 C         2.356772         0.029594         1.466884
 H        -0.758848        -1.057115         0.928260
 H        -0.381160         0.655842         0.681154
 H        -0.519862        -0.491195        -0.810939
 H         4.189424        -1.008051         0.239754
 H         1.912582        -2.678632        -0.151424
 H         0.765654        -2.394683         2.367370
 H         1.832896        -3.501851         1.832353
 H         2.216958        -1.964529         4.037904
 H         3.584781        -1.926109         2.956580
 H         2.630031         1.078831         1.292061
