19
Iteration:   346
 C        -0.109700        -0.194486         0.285436
 C         1.319353        -0.460889         0.559978
 O         2.323721        -0.211421        -0.701873
 C         2.986406        -1.016814         0.294025
 C         1.732648        -1.936609         0.664706
 C         1.837364        -2.603834         2.074140
 C         2.525861        -1.564814         3.041554
 O         2.252583        -0.261134         2.848783
 C         2.433928         0.074081         1.465318
 H        -0.453134        -0.887996         1.021990
 H        -0.483199         0.837131         0.492320
 H        -0.227457        -0.331567        -0.856008
 H         3.956059        -1.362351        -0.127789
 H         1.258956        -2.524130        -0.216470
 H         0.967866        -3.084372         2.569765
 H         2.491784        -3.453469         1.962770
 H         2.190911        -1.675690         4.120277
 H         3.508128        -1.823294         3.012719
 H         2.791601         1.101097         1.234736
