19
Iteration:   454
 C        -0.165151        -0.254628         0.341265
 C         1.291535        -0.489510         0.469848
 O         2.366508        -0.219812        -0.721658
 C         3.016783        -0.978309         0.440214
 C         1.771471        -1.864795         0.644481
 C         1.793548        -2.566225         1.998999
 C         2.505561        -1.618088         3.010206
 O         2.322415        -0.215121         2.830671
 C         2.412384         0.034188         1.485168
 H        -0.552429         0.083686         1.270535
 H        -0.334484         0.550705        -0.378720
 H        -0.702712        -1.206947         0.178091
 H         4.027634        -1.386779         0.301676
 H         1.347956        -2.480370        -0.188564
 H         0.751974        -2.861122         2.302457
 H         2.476193        -3.462900         1.804955
 H         2.086276        -1.848810         4.039579
 H         3.692697        -1.886479         3.034112
 H         2.609158         1.102373         1.391870
