19
Iteration:  1031
 C        -0.224129        -0.092622         0.357747
 C         1.244250        -0.540970         0.464803
 O         2.290931        -0.296874        -0.680439
 C         3.077380        -0.886267         0.290767
 C         1.943168        -1.938374         0.632256
 C         1.861520        -2.601873         2.022415
 C         2.508827        -1.639447         3.132800
 O         2.210876        -0.266949         2.822496
 C         2.422636         0.043252         1.429213
 H        -0.761556        -0.217252         1.307495
 H        -0.186102         1.021842         0.299148
 H        -0.680591        -0.551565        -0.543863
 H         4.151900        -1.069788         0.139249
 H         1.750443        -2.667188        -0.154601
 H         0.797707        -2.787365         2.207193
 H         2.424272        -3.554080         2.030435
 H         2.196745        -1.832964         4.208561
 H         3.573420        -1.785580         3.110386
 H         2.633334         1.127204         1.344587
