19
Iteration:  4483
 C        -0.143826        -0.135177         0.448123
 C         1.325459        -0.619500         0.473023
 O         2.240047        -0.310996        -0.668252
 C         3.097947        -0.810844         0.287523
 C         2.016780        -1.972644         0.578338
 C         1.867219        -2.619516         2.028769
 C         2.380794        -1.599940         3.095093
 O         2.231322        -0.222027         2.811207
 C         2.352011         0.075598         1.397480
 H        -0.493778         0.185229         1.439816
 H        -0.179879         0.733306        -0.226744
 H        -0.937115        -0.839401         0.199325
 H         4.187942        -0.995514        -0.004947
 H         1.873390        -2.744576        -0.192678
 H         0.883477        -2.998099         2.263637
 H         2.496157        -3.605838         2.160276
 H         1.902071        -1.578402         4.081434
 H         3.441549        -1.761491         3.319242
 H         2.461397         1.105672         1.152983
