19
Iteration:  4334charge 0 multiplicity 1
 C        -0.141511        -0.036787         0.193337
 C         1.208827        -0.497749         0.490590
 O         2.249168        -0.364740        -0.686003
 C         2.994352        -0.926213         0.370937
 C         1.882789        -1.930300         0.731142
 C         1.989094        -2.663598         2.069664
 C         2.621436        -1.636237         3.143426
 O         2.194702        -0.236357         2.746592
 C         2.298932         0.065620         1.467523
 H        -0.844653        -0.645735         0.836115
 H        -0.333120         1.035430         0.295857
 H        -0.470707        -0.214392        -0.853394
 H         4.073569        -1.148209         0.406913
 H         1.710945        -2.724658        -0.017011
 H         0.972095        -2.937563         2.350381
 H         2.647675        -3.442616         2.028092
 H         2.445148        -1.628039         4.200275
 H         3.714090        -1.536375         2.859019
 H         2.662706         1.147265         1.507557
