19
Iteration:  4359charge 0 multiplicity 1
 C        -0.146543        -0.062100         0.184048
 C         1.235280        -0.539778         0.435521
 O         2.204917        -0.374788        -0.606937
 C         3.042346        -0.935685         0.475248
 C         1.892410        -1.977772         0.724503
 C         1.903585        -2.553528         2.059025
 C         2.700639        -1.654368         3.019450
 O         2.212013        -0.262431         2.798813
 C         2.268282         0.122076         1.417787
 H        -0.996378        -0.706432         0.629405
 H        -0.288639         1.059438         0.300867
 H        -0.424212        -0.059275        -0.932031
 H         4.070859        -0.867311         0.417039
 H         1.660361        -2.723718        -0.049657
 H         0.980781        -2.728018         2.615010
 H         2.564879        -3.516423         2.160700
 H         2.470631        -1.889818         4.091182
 H         3.735846        -1.526108         2.746282
 H         2.729790         1.148875         1.350800
