19
Iteration:  4160charge 0 multiplicity 1
 C        -0.165882        -0.012528         0.169961
 C         1.294221        -0.530081         0.460131
 O         2.160488        -0.343129        -0.575406
 C         3.004944        -0.959327         0.351168
 C         1.951399        -2.031339         0.680385
 C         2.011430        -2.628398         2.143324
 C         2.623044        -1.560022         3.046986
 O         2.138124        -0.257465         2.778093
 C         2.322387         0.052939         1.435999
 H        -1.016717        -0.164948         0.909757
 H        -0.014067         1.085183         0.308539
 H        -0.564921        -0.308190        -0.815374
 H         4.085652        -1.059691         0.173971
 H         1.756355        -2.640948        -0.226219
 H         0.974605        -2.771998         2.529716
 H         2.505944        -3.688333         2.011499
 H         2.519347        -1.716215         4.092001
 H         3.720404        -1.475425         3.026061
 H         2.681112         1.155941         1.477253
