19
Iteration:    53
 C        -0.232280        -0.032535         0.275251
 C         1.277031        -0.519887         0.463256
 O         2.264372        -0.271680        -0.709281
 C         3.072956        -1.007619         0.473091
 C         1.901676        -1.931280         0.731910
 C         1.809160        -2.538402         2.105477
 C         2.584561        -1.693697         3.068381
 O         2.310876        -0.279477         2.759278
 C         2.369261         0.051351         1.336186
 H        -0.970678        -0.727481         0.547247
 H        -0.413722         0.871764         0.827309
 H        -0.474364         0.074689        -0.835216
 H         4.157866        -1.066167         0.292572
 H         1.738448        -2.710136        -0.005962
 H         0.788686        -2.494411         2.473075
 H         2.083095        -3.664256         2.176683
 H         2.178086        -1.870893         4.144813
 H         3.712944        -1.908300         3.082698
 H         2.544609         1.165333         1.234423
