19
Iteration:  2669
 C        -0.181214        -0.252284         0.183042
 C         1.285983        -0.436893         0.481921
 O         2.196870        -0.192135        -0.620343
 C         3.105931        -0.860423         0.394164
 C         1.921043        -1.894857         0.684316
 C         1.763275        -2.555804         1.970250
 C         2.535270        -1.745962         3.022777
 O         2.242633        -0.350412         2.870838
 C         2.483392         0.104190         1.533895
 H        -0.784961        -0.292971         1.020742
 H        -0.388151         0.589217        -0.464448
 H        -0.545343        -1.171782        -0.255975
 H         4.127308        -1.053823         0.280480
 H         1.942629        -2.398695        -0.283254
 H         0.636460        -2.485819         2.259632
 H         2.131613        -3.621596         2.010097
 H         2.431591        -1.960960         4.063847
 H         3.523048        -1.593853         2.781416
 H         2.860758         1.165854         1.525402
