19
Iteration:  1178
 C        -0.224702        -0.078536         0.191954
 C         1.235944        -0.442030         0.474866
 O         2.248411        -0.322002        -0.636726
 C         3.032336        -0.902083         0.413838
 C         1.898578        -1.951132         0.672152
 C         1.893206        -2.624423         2.068014
 C         2.594816        -1.663615         3.039285
 O         2.250721        -0.254217         2.843455
 C         2.381881         0.089928         1.442222
 H        -0.779088        -0.850075         0.764765
 H        -0.473530         0.961655         0.478191
 H        -0.426925        -0.190202        -0.877553
 H         4.066388        -1.189352         0.236475
 H         1.796481        -2.708319        -0.166988
 H         0.841352        -3.054304         2.321458
 H         2.388184        -3.576082         2.003387
 H         2.358863        -1.805365         4.107639
 H         3.726317        -1.873873         2.989241
 H         2.701307         1.160125         1.395104
