19
Iteration:  4140
 C        -0.147999        -0.064542         0.258477
 C         1.272603        -0.578328         0.514470
 O         2.255652        -0.243729        -0.676300
 C         3.034043        -0.992504         0.418930
 C         1.889425        -1.996585         0.694372
 C         1.901924        -2.598707         2.105708
 C         2.653898        -1.551478         2.992762
 O         2.129890        -0.192988         2.807451
 C         2.296246        -0.022052         1.403335
 H        -0.915091        -0.633074         0.811948
 H        -0.211433         0.939996         0.554901
 H        -0.231070        -0.287570        -0.784035
 H         4.056444        -1.185394         0.222155
 H         1.650681        -2.777081        -0.015876
 H         0.902657        -2.909694         2.290107
 H         2.737616        -3.346683         2.164495
 H         2.625071        -1.882848         4.043146
 H         3.787908        -1.560905         2.957621
 H         2.550049         1.071277         1.185463
