19
Iteration:  1805
 C        -0.161150        -0.249592         0.301937
 C         1.314618        -0.539210         0.448018
 O         2.208148        -0.219184        -0.645136
 C         3.047741        -0.786205         0.417349
 C         2.021904        -1.886275         0.664418
 C         1.727061        -2.503606         2.050277
 C         2.461198        -1.707696         3.050999
 O         2.364991        -0.311008         2.780351
 C         2.357711         0.037173         1.417290
 H        -0.610453        -0.703397         1.175053
 H        -0.240401         0.808971         0.288549
 H        -0.455567        -0.791186        -0.508842
 H         4.058402        -0.981751         0.170402
 H         2.040119        -2.697239        -0.104699
 H         0.672494        -2.218074         2.285558
 H         1.944006        -3.562120         2.005572
 H         2.134848        -1.991153         4.045967
 H         3.424545        -2.032586         3.017143
 H         2.568718         1.069055         1.440737
