19
Iteration:  1229
 C        -0.291937        -0.086346         0.343677
 C         1.221043        -0.542455         0.397582
 O         2.271108        -0.270192        -0.695260
 C         3.129921        -0.930896         0.439836
 C         2.024037        -2.012795         0.630661
 C         1.881147        -2.553032         2.031253
 C         2.498398        -1.663271         3.036420
 O         2.275289        -0.202396         2.875870
 C         2.347991         0.033236         1.419804
 H        -0.807270        -0.633631         1.146574
 H        -0.126989         1.025565         0.412455
 H        -0.766616        -0.277189        -0.653499
 H         4.141735        -1.035566         0.057432
 H         1.787228        -2.736941        -0.147230
 H         0.836984        -2.597899         2.185280
 H         2.040339        -3.624667         2.222947
 H         2.117725        -1.973226         4.091621
 H         3.536814        -1.816643         2.985853
 H         2.706537         1.088038         1.401800
