19
Iteration:  1908
 C        -0.065583        -0.021011         0.291247
 C         1.274515        -0.561144         0.468837
 O         2.216031        -0.279796        -0.667331
 C         3.038558        -0.851580         0.451394
 C         1.956990        -1.984076         0.600427
 C         1.878971        -2.565274         2.014951
 C         2.632682        -1.627881         3.052996
 O         2.181172        -0.297072         2.837867
 C         2.281204        -0.039200         1.469974
 H        -0.680506        -0.127682         1.215928
 H        -0.146748         1.019646        -0.090063
 H        -0.635382        -0.642940        -0.500058
 H         4.117858        -0.766773         0.213889
 H         1.804352        -2.696639        -0.208883
 H         0.772323        -2.630293         2.316152
 H         2.108093        -3.603683         2.048827
 H         2.240300        -2.015871         3.997863
 H         3.640865        -1.806997         2.857788
 H         2.388359         1.088498         1.408834
