19
Iteration:  2864
 C        -0.234902        -0.192295         0.213887
 C         1.219599        -0.479828         0.453503
 O         2.296921        -0.156250        -0.589600
 C         3.047099        -0.889749         0.492483
 C         1.927614        -1.947233         0.612415
 C         1.907378        -2.640096         1.970122
 C         2.516441        -1.703221         3.009368
 O         2.314306        -0.262839         2.846607
 C         2.325880         0.061396         1.508901
 H        -0.743998         0.050564         1.118169
 H        -0.575874         0.677541        -0.367051
 H        -0.752256        -0.879862        -0.471196
 H         4.095863        -1.030103         0.385480
 H         1.810077        -2.547294        -0.252310
 H         0.886082        -2.971457         2.085333
 H         2.475340        -3.508525         1.997818
 H         2.258348        -2.010722         4.022629
 H         3.562456        -1.917806         2.929432
 H         2.630767         1.128925         1.501675
