19
Iteration:   540charge 0 multiplicity 1
 C        -0.267395        -0.125584         0.313594
 C         1.249338        -0.448763         0.542821
 O         2.366231        -0.262508        -0.628335
 C         2.991959        -0.984344         0.360404
 C         1.835311        -1.922075         0.633444
 C         1.842470        -2.547390         2.035297
 C         2.580692        -1.640564         3.122967
 O         2.241192        -0.266499         2.760383
 C         2.470919         0.018202         1.370865
 H        -0.866130        -0.721959         1.004521
 H        -0.577760         0.931247         0.456207
 H        -0.468176        -0.578214        -0.689061
 H         4.090692        -1.224006         0.300750
 H         1.530302        -2.594651        -0.202106
 H         0.853220        -2.897089         2.290740
 H         2.604129        -3.424432         1.859583
 H         2.207813        -1.695283         4.159011
 H         3.657636        -1.834656         3.180620
 H         2.744733         1.100782         1.158634
