19
Iteration:   648
 C        -0.116666        -0.167730         0.341411
 C         1.260575        -0.523028         0.593835
 O         2.302806        -0.239812        -0.615413
 C         2.992572        -1.006618         0.293594
 C         1.846749        -1.805298         0.729515
 C         1.886423        -2.595166         1.960397
 C         2.483847        -1.640811         3.048631
 O         2.234986        -0.253974         2.745368
 C         2.437501         0.051285         1.423976
 H        -0.609353        -0.174129         1.350378
 H        -0.289528         0.688943        -0.352406
 H        -0.553935        -0.987390        -0.303604
 H         4.060923        -1.298020         0.401626
 H         1.639398        -2.530725        -0.086175
 H         0.877671        -2.799904         2.255707
 H         2.202428        -3.546742         1.800899
 H         2.189154        -1.748757         4.084133
 H         3.523277        -1.769435         2.982936
 H         2.796573         1.107902         1.276035
