19
Iteration:  1223charge 0 multiplicity 1
 C        -0.220287        -0.023143         0.321063
 C         1.198533        -0.583496         0.357906
 O         2.221041        -0.256840        -0.688654
 C         3.117902        -0.931611         0.429638
 C         2.089062        -2.074302         0.686522
 C         1.850052        -2.555118         2.020925
 C         2.505460        -1.664487         3.046888
 O         2.266453        -0.201886         2.864607
 C         2.348544         0.014410         1.441261
 H        -0.860896        -0.567468         1.044231
 H        -0.271551         1.037121         0.597075
 H        -0.750599        -0.168926        -0.612943
 H         4.127768        -0.875463        -0.049196
 H         2.015702        -2.704909        -0.237353
 H         0.720792        -2.540712         2.374720
 H         2.067473        -3.633546         2.167036
 H         2.178770        -1.972691         3.998024
 H         3.727286        -1.730896         3.078620
 H         2.509335         1.096346         1.357730
