19
Iteration:  4332charge 0 multiplicity 1
 C        -0.132464        -0.043337         0.201397
 C         1.209999        -0.505933         0.486512
 O         2.254620        -0.360544        -0.676646
 C         2.983949        -0.938098         0.354240
 C         1.891314        -1.935077         0.726114
 C         1.981988        -2.642089         2.058862
 C         2.619474        -1.633868         3.157467
 O         2.196094        -0.245852         2.738595
 C         2.289279         0.070704         1.473339
 H        -0.858403        -0.547016         0.820024
 H        -0.374174         0.999228         0.316570
 H        -0.448569        -0.251277        -0.799997
 H         4.136616        -1.092875         0.385526
 H         1.656543        -2.707220        -0.047642
 H         0.969159        -2.882083         2.390075
 H         2.671508        -3.405331         2.020921
 H         2.428665        -1.713670         4.238124
 H         3.732967        -1.499109         2.943381
 H         2.678483         1.117582         1.428740
