19
Iteration:   556charge 0 multiplicity 1
 C        -0.201667        -0.226388         0.256606
 C         1.265011        -0.446599         0.504708
 O         2.302243        -0.234652        -0.692786
 C         3.093360        -1.032250         0.369266
 C         1.761102        -1.844377         0.678562
 C         1.867022        -2.516856         2.070024
 C         2.556040        -1.636032         2.996403
 O         2.306854        -0.256105         2.844228
 C         2.400295         0.022553         1.484179
 H        -0.749004        -0.884489         0.949496
 H        -0.562927         0.796567         0.315323
 H        -0.449914        -0.410655        -0.770570
 H         4.068070        -1.346028         0.034981
 H         1.371925        -2.529178        -0.076330
 H         0.809986        -2.617588         2.473622
 H         2.168387        -3.522014         2.033733
 H         2.249215        -1.981206         3.981438
 H         3.624034        -1.725678         2.925414
 H         2.768871         1.025535         1.578022
