19
Iteration:  3635charge 0 multiplicity 1
 C        -0.181994        -0.063100         0.236980
 C         1.241470        -0.484809         0.468195
 O         2.242375        -0.319056        -0.711257
 C         3.022901        -0.918464         0.429187
 C         1.967747        -1.906180         0.679916
 C         2.000238        -2.598418         2.056032
 C         2.523915        -1.714212         3.097164
 O         2.193418        -0.270866         2.839702
 C         2.356604         0.080378         1.409579
 H        -0.717181        -0.806484         0.837199
 H        -0.544255         0.941728         0.606698
 H        -0.580764         0.064640        -0.823944
 H         4.086123        -0.985719         0.168693
 H         1.704012        -2.645126        -0.137311
 H         0.995042        -3.015711         2.334927
 H         2.454097        -3.544277         1.895043
 H         2.098706        -2.022186         4.011172
 H         3.663249        -1.646313         3.216506
 H         2.629818         1.143383         1.494973
