19
Iteration:  3014
 C        -0.248094        -0.231356         0.165411
 C         1.228553        -0.571342         0.471968
 O         2.241216        -0.172949        -0.641725
 C         3.089752        -0.752793         0.465865
 C         1.998686        -1.982532         0.614905
 C         1.731790        -2.546028         2.042563
 C         2.549974        -1.728613         2.955735
 O         2.392951        -0.302960         2.910803
 C         2.340932         0.088133         1.546714
 H        -1.031082        -0.492961         0.825821
 H        -0.326281         0.843869        -0.051566
 H        -0.563481        -0.854533        -0.627411
 H         4.178284        -0.857874         0.315492
 H         2.028157        -2.802302        -0.129363
 H         0.698040        -2.411216         2.178665
 H         2.078893        -3.569337         2.048425
 H         2.354379        -1.969805         4.030051
 H         3.621332        -1.962090         2.673931
 H         2.453128         1.177070         1.464760
