19
Iteration:  4183
 C        -0.136396        -0.018814         0.187818
 C         1.220932        -0.591338         0.454348
 O         2.225160        -0.384137        -0.768698
 C         2.995143        -0.831636         0.436823
 C         1.880118        -1.899844         0.722583
 C         2.001527        -2.555172         2.121880
 C         2.571747        -1.690283         3.151404
 O         2.262827        -0.295756         2.867465
 C         2.289325         0.081833         1.326937
 H        -0.803894        -0.060297         1.104701
 H        -0.215611         1.015723        -0.095577
 H        -0.667224        -0.734651        -0.441709
 H         4.022210        -1.077754         0.408652
 H         1.884232        -2.572917        -0.130545
 H         1.042419        -2.887983         2.530861
 H         2.521691        -3.531602         1.740575
 H         2.473356        -1.860288         4.208246
 H         3.664781        -1.788438         3.074655
 H         2.331134         1.224036         1.380393
