19
Iteration:  4646
 C        -0.129750        -0.242473         0.400782
 C         1.292547        -0.565850         0.455386
 O         2.238022        -0.210262        -0.682189
 C         3.130465        -0.877949         0.415653
 C         1.919182        -1.996149         0.618853
 C         1.798944        -2.544370         2.009528
 C         2.466674        -1.668385         3.042348
 O         2.261079        -0.215156         2.769573
 C         2.376373         0.123588         1.434112
 H        -0.466881        -0.611229         1.425320
 H        -0.221547         0.894519         0.367780
 H        -0.764432        -0.868136        -0.305680
 H         4.215947        -0.814707         0.340766
 H         1.735609        -2.774925        -0.182325
 H         0.763594        -2.823835         2.248953
 H         2.264625        -3.533204         2.114971
 H         2.069620        -1.745149         4.058182
 H         3.485940        -1.990808         3.067942
 H         2.612416         1.127585         1.124513
