19
Iteration:  2793charge 0 multiplicity 1
 C        -0.199125        -0.273634         0.272402
 C         1.219693        -0.511137         0.401323
 O         2.366514        -0.173980        -0.609927
 C         3.050802        -0.872417         0.488773
 C         1.897670        -1.932821         0.623593
 C         1.806562        -2.526208         1.940213
 C         2.511483        -1.717458         2.948750
 O         2.314401        -0.264324         2.878864
 C         2.314583         0.068285         1.517061
 H        -0.683147        -0.645211         1.241533
 H        -0.504029         0.760064         0.297551
 H        -0.645567        -0.559610        -0.700825
 H         4.181660        -1.042486         0.355739
 H         1.667857        -2.636687        -0.264904
 H         0.770922        -2.792078         2.293897
 H         2.371257        -3.617071         1.996385
 H         2.425794        -1.701452         4.069291
 H         3.717604        -1.928372         2.923869
 H         2.518543         1.153678         1.365088
