19
Iteration:  2577charge 0 multiplicity 1
 C        -0.173573        -0.146538         0.291291
 C         1.281366        -0.353730         0.505883
 O         2.284460        -0.217155        -0.634455
 C         3.059049        -0.929127         0.394595
 C         1.852613        -1.898105         0.633291
 C         1.968366        -2.659454         2.022466
 C         2.488032        -1.718956         3.099405
 O         2.138828        -0.309792         2.762671
 C         2.435102         0.106354         1.449618
 H        -0.580026        -0.895320         1.039430
 H        -0.413363         0.907675         0.462377
 H        -0.437026        -0.601017        -0.671764
 H         4.123789        -1.253279         0.134728
 H         1.572647        -2.562272        -0.169625
 H         0.952755        -3.131113         2.305731
 H         2.646544        -3.392520         1.809529
 H         2.056824        -2.003367         4.035702
 H         3.549829        -1.764821         3.037513
 H         2.752820         1.117794         1.391668
