19
Iteration:  4313charge 0 multiplicity 1
 C        -0.159317        -0.108839         0.257675
 C         1.251838        -0.573342         0.442151
 O         2.175194        -0.256469        -0.676824
 C         3.095775        -0.945216         0.392198
 C         1.885423        -1.960524         0.645086
 C         1.975627        -2.525650         2.090758
 C         2.567621        -1.597336         3.093006
 O         2.187337        -0.240890         2.878887
 C         2.392164        -0.011906         1.354384
 H        -0.777339        -0.526654         1.122968
 H        -0.064325         0.990648         0.114041
 H        -0.583743        -0.418875        -0.755194
 H         4.086494        -1.298039         0.144409
 H         1.791784        -2.782991        -0.082222
 H         0.914297        -2.680273         2.383273
 H         2.504178        -3.490468         2.118119
 H         2.010361        -1.702148         4.000152
 H         3.669120        -1.780012         3.188330
 H         2.468505         1.109667         1.414524
