19
Iteration:  4078charge 0 multiplicity 1
 C        -0.092584        -0.392719         0.291323
 C         1.326230        -0.621559         0.486618
 O         2.157734        -0.186603        -0.587564
 C         3.069341        -0.802548         0.308780
 C         1.956980        -1.993838         0.660054
 C         1.658894        -2.443367         2.021797
 C         2.479874        -1.614612         3.097421
 O         2.459263        -0.184294         2.775746
 C         2.394870         0.022996         1.443022
 H        -0.660749        -0.972804         1.057210
 H        -0.463530         0.691956         0.231346
 H        -0.441512        -0.660467        -0.759108
 H         4.162326        -1.047427         0.163006
 H         1.771041        -2.523112        -0.290524
 H         0.514938        -2.454284         2.388237
 H         1.996674        -3.485133         2.049060
 H         1.781207        -1.724570         3.999788
 H         3.443715        -2.014172         3.335429
 H         2.444236         1.067177         1.292051
