19
Iteration:  3805charge 0 multiplicity 1
 C        -0.130276         0.048155         0.254580
 C         1.275981        -0.545850         0.462483
 O         2.227386        -0.351426        -0.660003
 C         3.067095        -0.916151         0.423328
 C         1.953329        -1.980171         0.698548
 C         2.032820        -2.682506         2.020634
 C         2.581644        -1.624921         3.050254
 O         2.110073        -0.263688         2.806968
 C         2.210552         0.071220         1.473706
 H        -0.685273         0.373195         1.164532
 H        -0.097030         1.022026        -0.205877
 H        -0.710836        -0.739541        -0.170404
 H         4.114499        -0.990461         0.018603
 H         1.860044        -2.531968        -0.233108
 H         1.069813        -3.121999         2.425386
 H         2.757545        -3.534812         2.139188
 H         2.306388        -1.858065         4.128432
 H         3.568398        -1.554774         2.642806
 H         2.448086         1.123114         1.323212
