19
Iteration:  4326charge 0 multiplicity 1
 C        -0.137330        -0.059835         0.219799
 C         1.245453        -0.524866         0.477256
 O         2.252594        -0.335941        -0.661661
 C         3.000513        -0.968974         0.357883
 C         1.906062        -1.955265         0.695716
 C         1.969733        -2.551650         2.072210
 C         2.617321        -1.606564         3.150127
 O         2.191164        -0.281860         2.776997
 C         2.283255         0.069335         1.426933
 H        -0.963541        -0.436436         0.911895
 H        -0.322472         1.038502         0.386100
 H        -0.402949        -0.417663        -0.826551
 H         4.031222        -0.972697         0.176324
 H         1.544148        -2.580357        -0.121221
 H         0.989291        -2.864099         2.489159
 H         2.689089        -3.490771         1.976800
 H         2.317128        -1.929758         4.168662
 H         3.705858        -1.586935         3.239849
 H         2.621300         1.083447         1.138510
