19
Iteration:   593charge 0 multiplicity 1
 C        -0.227359        -0.157203         0.249274
 C         1.257996        -0.602123         0.442505
 O         2.221928        -0.276950        -0.605530
 C         3.097196        -0.828852         0.404456
 C         1.975410        -1.927864         0.698991
 C         1.703601        -2.502399         2.119534
 C         2.550543        -1.722289         2.958285
 O         2.451339        -0.296324         2.777437
 C         2.298342         0.053353         1.470587
 H        -1.164883        -0.412296         0.842074
 H        -0.004125         0.972067         0.234370
 H        -0.401029        -0.464946        -0.852148
 H         4.249460        -0.845345         0.367638
 H         1.850908        -2.612607        -0.163840
 H         0.686142        -2.212497         2.387976
 H         1.871149        -3.560863         2.303270
 H         2.283465        -1.804593         4.020416
 H         3.712855        -2.060704         2.807739
 H         2.214136         1.205385         1.364828
