19
Iteration:  2616charge 0 multiplicity 1
 C        -0.201202        -0.103458         0.206429
 C         1.268575        -0.584949         0.411512
 O         2.225147        -0.194940        -0.590610
 C         3.073900        -0.848386         0.442218
 C         2.041108        -1.976429         0.588689
 C         1.803354        -2.521049         2.003690
 C         2.539493        -1.788440         3.055028
 O         2.318553        -0.277927         2.842601
 C         2.263694         0.042276         1.505688
 H        -0.761006        -0.209581         1.127606
 H        -0.313607         0.963137        -0.063962
 H        -0.768863        -0.563645        -0.588460
 H         4.143421        -0.903662         0.350206
 H         1.973676        -2.607185        -0.339255
 H         0.756423        -2.672722         2.289254
 H         2.247261        -3.623046         2.286097
 H         2.397084        -1.958676         4.143296
 H         3.672196        -1.882711         2.975912
 H         2.421018         1.176795         1.414033
