19
Iteration:  1818charge 0 multiplicity 1
 C        -0.103264        -0.227647         0.328366
 C         1.270101        -0.620297         0.514332
 O         2.158232        -0.234075        -0.617043
 C         3.174829        -0.809006         0.391697
 C         2.054208        -1.941124         0.660020
 C         1.713800        -2.519926         1.994271
 C         2.506501        -1.737229         3.077344
 O         2.352605        -0.308905         2.753801
 C         2.311441         0.104347         1.432071
 H        -0.865872        -0.405747         1.119272
 H        -0.174965         0.885808         0.169961
 H        -0.542442        -0.457822        -0.639480
 H         4.196903        -0.821849         0.108128
 H         1.895815        -2.512150        -0.309739
 H         0.623114        -2.399549         2.078511
 H         1.755306        -3.549017         2.114076
 H         1.933919        -1.601661         4.075384
 H         3.551982        -1.870440         3.223122
 H         2.262797         1.211916         1.281982
