19
Iteration:  4955charge 0 multiplicity 1
 C        -0.187144        -0.304991         0.147943
 C         1.247564        -0.643606         0.460318
 O         2.238797        -0.151399        -0.591506
 C         3.038235        -0.728935         0.508897
 C         2.020008        -1.880906         0.577482
 C         1.662232        -2.440801         2.060328
 C         2.590563        -1.746673         3.029473
 O         2.456977        -0.322659         2.801963
 C         2.282083         0.009312         1.524277
 H        -0.565285         0.375295         0.915705
 H        -0.302644         0.351647        -0.709020
 H        -0.864854        -1.143850         0.051623
 H         4.139430        -0.893739         0.380839
 H         1.854195        -2.546802        -0.289383
 H         0.552367        -2.511269         2.305747
 H         1.849246        -3.513725         2.117669
 H         2.289682        -1.745915         4.010515
 H         3.639187        -2.229942         2.901164
 H         2.375567         1.073570         1.431585
