19
Iteration:  4614
 C        -0.257519        -0.367009         0.215185
 C         1.278542        -0.549685         0.550380
 O         2.250451        -0.189084        -0.621484
 C         3.083758        -0.940968         0.334183
 C         1.907456        -1.923402         0.616019
 C         1.740026        -2.411931         2.026554
 C         2.522433        -1.682888         3.072832
 O         2.411782        -0.217696         2.837306
 C         2.407903         0.079298         1.496624
 H        -0.794015        -1.007335         0.979126
 H        -0.655921         0.704128         0.288025
 H        -0.436323        -0.703531        -0.855602
 H         4.168825        -0.907181         0.109621
 H         1.670581        -2.690545        -0.171064
 H         0.695002        -2.411813         2.025803
 H         2.164271        -3.418676         2.186860
 H         2.066710        -1.798695         4.066394
 H         3.636607        -2.028784         3.052110
 H         2.637311         1.124544         1.313590
