19
Iteration:  4756
 C        -0.155740        -0.266908         0.160528
 C         1.206889        -0.542500         0.520830
 O         2.216186        -0.240323        -0.604361
 C         3.052061        -0.789951         0.462016
 C         1.931935        -1.862992         0.673554
 C         1.742831        -2.556505         2.032335
 C         2.633285        -1.748726         2.990920
 O         2.385333        -0.317210         2.870561
 C         2.324974         0.112500         1.427584
 H        -0.971857        -0.329205         0.955529
 H        -0.102809         0.763885        -0.242850
 H        -0.505853        -0.824806        -0.758371
 H         4.123155        -0.797999         0.196075
 H         1.819427        -2.624151        -0.177087
 H         0.701431        -2.289678         2.414679
 H         2.059325        -3.606769         2.156709
 H         2.265846        -1.834600         4.020206
 H         3.687308        -2.087378         2.856452
 H         2.401659         1.199627         1.298265
