19
Iteration:  4702
 C        -0.100624        -0.039881         0.318717
 C         1.221182        -0.574472         0.525308
 O         2.225058        -0.234468        -0.610928
 C         3.078764        -0.951785         0.387792
 C         1.927165        -1.918240         0.638811
 C         2.006324        -2.592803         1.980836
 C         2.519802        -1.606772         3.049627
 O         2.121804        -0.297632         2.746603
 C         2.335634        -0.013000         1.482232
 H        -0.551491         0.420772         1.276544
 H        -0.092266         0.858574        -0.345875
 H        -0.839154        -0.815422        -0.092943
 H         4.170649        -1.094993         0.108373
 H         1.792559        -2.789674        -0.096756
 H         1.089396        -3.109114         2.304623
 H         2.757339        -3.427170         1.952694
 H         2.198872        -1.649376         4.083797
 H         3.547440        -1.764556         3.014286
 H         2.443565         1.035115         1.209748
