19
Iteration:  4081charge 0 multiplicity 1
 C        -0.087328        -0.381976         0.286885
 C         1.320588        -0.627934         0.507084
 O         2.171392        -0.203027        -0.588976
 C         3.072330        -0.790916         0.320359
 C         1.951658        -1.963627         0.664782
 C         1.667502        -2.434486         2.044135
 C         2.468888        -1.615732         3.106731
 O         2.453419        -0.217453         2.762802
 C         2.391171         0.036553         1.415018
 H        -0.712372        -0.967664         0.968934
 H        -0.497036         0.694043         0.344135
 H        -0.447967        -0.666199        -0.741711
 H         4.158802        -1.070194         0.065118
 H         1.801041        -2.525687        -0.297012
 H         0.574803        -2.566379         2.226696
 H         1.931952        -3.508668         2.195055
 H         1.856202        -1.698868         3.983332
 H         3.462332        -1.949521         3.163835
 H         2.401349         1.118665         1.357236
