19
Iteration:  2879charge 0 multiplicity 1
 C        -0.201227        -0.156665         0.260106
 C         1.287107        -0.540568         0.517977
 O         2.298289        -0.201626        -0.547333
 C         3.072135        -0.859426         0.501079
 C         1.895464        -1.871024         0.624888
 C         1.886041        -2.647880         1.930352
 C         2.522996        -1.668364         2.972828
 O         2.227175        -0.295723         2.817565
 C         2.329300         0.076834         1.424479
 H        -0.731009        -0.263867         1.267706
 H         0.025132         0.803689        -0.183694
 H        -0.702148        -1.077645        -0.166630
 H         4.158892        -1.025617         0.263543
 H         1.686275        -2.559350        -0.315843
 H         0.966945        -3.006035         2.440615
 H         2.563284        -3.520067         1.665560
 H         2.021827        -1.972875         3.917578
 H         3.586760        -1.791815         3.048040
 H         2.446629         1.170281         1.148414
