19
Iteration:  2046
 C        -0.092845        -0.056763         0.358614
 C         1.332040        -0.558058         0.460699
 O         2.173059        -0.243548        -0.683926
 C         3.123333        -0.918766         0.420307
 C         1.980436        -1.899513         0.696051
 C         1.849090        -2.623442         1.984979
 C         2.535433        -1.730603         3.063899
 O         2.147739        -0.301533         2.805376
 C         2.328560         0.083757         1.411909
 H        -0.689466        -0.382557         1.215649
 H        -0.082432         1.040116         0.217263
 H        -0.573168        -0.391652        -0.536794
 H         4.152938        -1.035825         0.161749
 H         1.786452        -2.626346        -0.177233
 H         0.816304        -2.813040         2.396884
 H         2.422271        -3.651908         2.004790
 H         2.131079        -1.671108         4.113209
 H         3.606622        -1.650310         2.929319
 H         2.552116         1.129506         1.158945
