19
Iteration:  1785charge 0 multiplicity 1
 C        -0.265452        -0.318847         0.282173
 C         1.313840        -0.472183         0.413412
 O         2.337977        -0.195109        -0.682784
 C         3.133775        -0.929762         0.381684
 C         1.836555        -1.847678         0.567026
 C         1.699680        -2.591722         1.975308
 C         2.560280        -1.650602         3.086966
 O         2.358418        -0.242004         2.900938
 C         2.365931         0.093196         1.533486
 H        -0.798663        -0.736317         1.197241
 H        -0.547499         0.777391         0.242855
 H        -0.665113        -0.961086        -0.508903
 H         4.148628        -1.099873         0.163785
 H         1.552154        -2.663642        -0.128854
 H         0.690336        -2.632451         2.341973
 H         2.108947        -3.527482         2.066529
 H         2.335664        -1.925813         4.211386
 H         3.645867        -1.952989         2.945385
 H         2.593174         1.124666         1.281062
