19
Iteration:  1471charge 0 multiplicity 1
 C        -0.183129        -0.344323         0.317702
 C         1.311083        -0.482325         0.456668
 O         2.300396        -0.198037        -0.714320
 C         3.101996        -0.998923         0.351114
 C         1.815090        -1.875648         0.609532
 C         1.756741        -2.553367         2.031994
 C         2.477072        -1.660167         3.014394
 O         2.323450        -0.187213         2.940490
 C         2.441705         0.132560         1.505460
 H        -0.687813        -0.215630         1.264650
 H        -0.629667         0.534881        -0.137486
 H        -0.493969        -1.131823        -0.342437
 H         4.097880        -1.295158         0.171191
 H         1.507463        -2.512298        -0.170133
 H         0.738962        -2.931784         2.261636
 H         2.448298        -3.474089         1.825667
 H         2.098078        -2.019693         4.005972
 H         3.443901        -1.748143         2.976533
 H         2.786904         1.142613         1.271838
