19
Iteration:  2439
 C        -0.091097        -0.085853         0.284016
 C         1.275708        -0.568442         0.445157
 O         2.197363        -0.285411        -0.682593
 C         3.101654        -0.712990         0.354513
 C         2.024754        -1.849418         0.652387
 C         1.776261        -2.539117         2.072203
 C         2.542381        -1.740211         3.081293
 O         2.267918        -0.431856         2.879304
 C         2.278467         0.044503         1.405855
 H        -0.881902        -0.094715         1.016781
 H        -0.034007         0.954245        -0.076356
 H        -0.647014        -0.688704        -0.493675
 H         4.124384        -0.901966         0.224863
 H         1.788529        -2.648956        -0.092985
 H         0.794778        -2.509604         2.284128
 H         2.279771        -3.595045         1.972987
 H         2.283484        -1.979135         4.166634
 H         3.663065        -1.980069         2.906737
 H         2.220813         1.122823         1.583947
