19
Iteration:  4844
 C        -0.050892        -0.102108         0.379520
 C         1.286454        -0.582862         0.487574
 O         2.177588        -0.270425        -0.675003
 C         3.051561        -0.862777         0.381474
 C         1.997776        -1.981576         0.568422
 C         1.938511        -2.608821         2.017026
 C         2.462516        -1.619102         3.126748
 O         2.196298        -0.258245         2.823542
 C         2.323832         0.060278         1.429233
 H        -0.814844        -0.783336         0.871463
 H        -0.131262         0.847135         0.910776
 H        -0.205405         0.120091        -0.698448
 H         4.129058        -0.946018         0.058330
 H         1.747835        -2.613294        -0.359166
 H         0.798849        -2.903102         1.950440
 H         2.436323        -3.588337         2.017042
 H         1.876443        -1.706564         4.031620
 H         3.607973        -1.944333         3.177472
 H         2.386651         1.127641         1.171261
