19
Iteration:  2179charge 0 multiplicity 1
 C        -0.227831        -0.264899         0.296915
 C         1.306620        -0.414537         0.520925
 O         2.316883        -0.235499        -0.592272
 C         3.083825        -0.872127         0.410490
 C         1.823341        -1.921982         0.656516
 C         1.733535        -2.599163         1.967988
 C         2.494924        -1.619040         2.961906
 O         2.297078        -0.283445         2.806779
 C         2.465028         0.074843         1.477437
 H        -0.640051        -0.776423         1.113668
 H        -0.502673         0.737337         0.281515
 H        -0.402667        -0.842718        -0.600692
 H         4.133159        -0.985842         0.376960
 H         1.655435        -2.488190        -0.298839
 H         0.640091        -2.875643         2.255728
 H         2.506549        -3.435806         2.083876
 H         2.194526        -1.952896         3.991132
 H         3.559182        -1.965254         2.809377
 H         2.813352         1.086895         1.236551
