19
Iteration:  2563
 C        -0.200647        -0.110265         0.352630
 C         1.295511        -0.481987         0.365030
 O         2.325826        -0.192639        -0.658156
 C         2.989789        -0.942046         0.444031
 C         1.935033        -1.912170         0.659612
 C         1.944008        -2.616065         1.930179
 C         2.472777        -1.634833         3.060909
 O         2.195932        -0.310387         2.837482
 C         2.360322         0.000460         1.454915
 H        -0.798025        -0.653847         1.163304
 H        -0.492761         0.947696         0.584528
 H        -0.728017        -0.292872        -0.586301
 H         4.091925        -1.131845         0.285293
 H         1.883659        -2.587883        -0.219305
 H         1.037030        -2.978191         2.220690
 H         2.690243        -3.410725         2.030307
 H         2.004562        -1.886265         4.040590
 H         3.591563        -1.850265         3.181327
 H         2.741901         1.046293         1.403636
