19
Iteration:  2202
 C        -0.151482        -0.140550         0.324634
 C         1.278104        -0.499844         0.442896
 O         2.243477        -0.248186        -0.686738
 C         3.080969        -0.904517         0.383330
 C         1.995077        -1.893483         0.653016
 C         1.776067        -2.575732         1.958248
 C         2.575426        -1.712470         3.129115
 O         2.217782        -0.276838         2.804001
 C         2.319371         0.045775         1.493988
 H        -0.673864        -0.653126         1.075437
 H        -0.157067         0.899950         0.474107
 H        -0.438930        -0.470411        -0.659739
 H         4.155208        -1.054179         0.146741
 H         1.777282        -2.516831        -0.233622
 H         0.680477        -2.516309         2.180138
 H         2.255382        -3.609114         2.122611
 H         2.196981        -1.988234         4.160288
 H         3.713971        -1.870158         3.088288
 H         2.558550         1.138009         1.329832
