19
Iteration:  4930
 C        -0.226510        -0.244257         0.181104
 C         1.295237        -0.534631         0.431211
 O         2.257826        -0.122492        -0.668359
 C         3.054822        -0.833917         0.469900
 C         1.966476        -1.949986         0.599899
 C         1.784534        -2.517650         2.061676
 C         2.599354        -1.724102         3.032094
 O         2.337227        -0.293591         2.898999
 C         2.322261        -0.005952         1.500227
 H        -0.832055         0.082144         1.049636
 H        -0.433536         0.573339        -0.460754
 H        -0.662677        -1.142559        -0.264472
 H         4.090457        -0.943590         0.139478
 H         1.790802        -2.727686        -0.220678
 H         0.680372        -2.438547         2.513913
 H         1.801860        -3.624021         2.062426
 H         2.350826        -1.770132         4.121548
 H         3.674532        -1.918474         2.865553
 H         2.405461         1.085083         1.377987
