19
Iteration:  3631
 C        -0.191197        -0.043900         0.222964
 C         1.243424        -0.476414         0.477898
 O         2.248824        -0.324888        -0.725944
 C         3.021990        -0.913214         0.442185
 C         1.964055        -1.902691         0.667852
 C         2.006174        -2.589896         2.045421
 C         2.564772        -1.682990         3.118902
 O         2.177124        -0.321859         2.826346
 C         2.309942         0.089280         1.405780
 H        -0.645130        -0.824581         0.874109
 H        -0.438634         0.965178         0.591080
 H        -0.547712         0.049862        -0.780083
 H         4.110584        -1.066154         0.142064
 H         1.669037        -2.625063        -0.082749
 H         1.067003        -2.836713         2.450868
 H         2.461873        -3.578912         1.897815
 H         2.080272        -2.052464         4.094722
 H         3.666156        -1.750054         3.316947
 H         2.661333         1.092229         1.497273
