19
Iteration:  4786charge 0 multiplicity 1
 C        -0.219279        -0.359863         0.205825
 C         1.284373        -0.561642         0.398863
 O         2.233226        -0.122454        -0.596034
 C         3.121772        -0.895946         0.455569
 C         1.913429        -1.891015         0.582669
 C         1.688156        -2.437786         2.068107
 C         2.574992        -1.671827         2.971909
 O         2.398282        -0.299164         2.935060
 C         2.345322         0.030450         1.438625
 H        -0.776548        -0.930783         0.878504
 H        -0.310563         0.692933         0.467468
 H        -0.544481        -0.552019        -0.795762
 H         4.091685        -0.991126         0.119692
 H         1.801568        -2.675256        -0.157638
 H         0.539187        -2.361828         2.286929
 H         1.928744        -3.504953         2.193293
 H         2.451521        -1.768290         4.085109
 H         3.699038        -2.033055         2.886568
 H         2.448796         1.115330         1.341585
