19
Iteration:  4394charge 0 multiplicity 1
 C        -0.208354        -0.232961         0.193593
 C         1.263696        -0.557641         0.405013
 O         2.232036        -0.211710        -0.646237
 C         3.076344        -0.881385         0.353642
 C         1.915447        -2.031084         0.657038
 C         1.775137        -2.462559         2.162014
 C         2.627595        -1.676373         3.058129
 O         2.314084        -0.207000         2.845014
 C         2.318757         0.059407         1.443457
 H        -0.808967        -0.693451         1.006786
 H        -0.226649         0.877192         0.421302
 H        -0.441717        -0.592631        -0.824844
 H         4.175872        -0.933204         0.227046
 H         1.704872        -2.906882         0.017575
 H         0.678281        -2.493238         2.308919
 H         2.031326        -3.639618         2.147948
 H         2.529772        -1.825534         4.167407
 H         3.638551        -1.991389         2.873338
 H         2.689725         1.083560         1.383370
