19
Iteration:   311
 C        -0.150314        -0.056897         0.326903
 C         1.265120        -0.544904         0.441214
 O         2.209927        -0.302331        -0.674177
 C         3.079012        -0.887019         0.444165
 C         1.968163        -1.995629         0.624151
 C         1.775024        -2.587842         2.031824
 C         2.526395        -1.623827         3.090715
 O         2.337523        -0.287704         2.788506
 C         2.372250         0.063729         1.405670
 H        -0.775547        -0.654552         1.004313
 H        -0.311775         0.982859         0.613057
 H        -0.710732        -0.410195        -0.577471
 H         4.175887        -1.041505         0.148537
 H         1.792327        -2.577284        -0.353247
 H         0.715984        -2.502456         2.302966
 H         2.166068        -3.612533         2.244748
 H         1.976493        -1.744010         4.039652
 H         3.531510        -1.818872         3.256810
 H         2.591053         1.192981         1.296555
