19
Iteration:  3125
 C        -0.248213        -0.131340         0.381191
 C         1.242778        -0.539716         0.460441
 O         2.289319        -0.171487        -0.649670
 C         3.079498        -0.818696         0.424613
 C         2.057845        -1.956583         0.576215
 C         1.915127        -2.627821         2.021307
 C         2.461258        -1.684088         3.084185
 O         2.248342        -0.317794         2.777709
 C         2.298458         0.021518         1.404134
 H        -0.671302        -0.282998         1.353762
 H        -0.270706         0.962950         0.238180
 H        -0.597765        -0.601213        -0.571523
 H         4.151784        -0.907990         0.316229
 H         1.930467        -2.640190        -0.262879
 H         0.811205        -2.779392         2.152499
 H         2.441746        -3.620080         2.088299
 H         1.717740        -1.788493         3.992859
 H         3.664186        -2.046889         3.304111
 H         2.473667         1.162703         1.296380
