19
Iteration:   480
 C        -0.180789        -0.052735         0.363686
 C         1.278773        -0.560559         0.485916
 O         2.205399        -0.241241        -0.723168
 C         3.113437        -0.913510         0.369003
 C         2.042888        -1.989882         0.678380
 C         1.823272        -2.599324         2.063185
 C         2.485614        -1.656418         3.085925
 O         2.240156        -0.282718         2.766725
 C         2.411307         0.058369         1.389937
 H        -0.496966         0.161408         1.441714
 H        -0.223463         0.900088        -0.230886
 H        -0.971010        -0.762693        -0.013115
 H         4.175023        -1.049958         0.197574
 H         1.793974        -2.680694        -0.120775
 H         0.708310        -2.612396         2.163731
 H         2.121557        -3.601724         2.116430
 H         1.928499        -1.819760         4.021771
 H         3.613568        -1.931589         3.265980
 H         2.464593         1.136079         1.406218
