19
Iteration:   821
 C        -0.170348        -0.062396         0.280279
 C         1.243124        -0.509017         0.433659
 O         2.225393        -0.253141        -0.630910
 C         3.011753        -0.903490         0.400293
 C         1.999621        -1.933480         0.610985
 C         1.871801        -2.611805         2.096561
 C         2.555476        -1.662139         3.100030
 O         2.281151        -0.299307         2.750496
 C         2.299897         0.013070         1.418842
 H        -0.584716        -0.329778         1.236936
 H        -0.247329         0.985342         0.337589
 H        -0.602912        -0.537783        -0.541351
 H         4.104747        -1.146260         0.249569
 H         1.985605        -2.719708        -0.108361
 H         0.847163        -2.401008         2.328163
 H         2.121989        -3.707696         2.142196
 H         2.170532        -1.743534         4.086686
 H         3.585760        -1.759774         3.177965
 H         2.709619         1.017333         1.269008
