19
Iteration:  1784charge 0 multiplicity 1
 C        -0.276411        -0.320489         0.279714
 C         1.317005        -0.473388         0.418800
 O         2.343764        -0.196372        -0.674459
 C         3.133603        -0.934519         0.381896
 C         1.824823        -1.839521         0.563642
 C         1.707132        -2.600405         1.973219
 C         2.564275        -1.649067         3.086414
 O         2.357872        -0.232189         2.899901
 C         2.363584         0.089980         1.532929
 H        -0.779434        -0.733426         1.184645
 H        -0.520182         0.746320         0.226024
 H        -0.637661        -0.941500        -0.485991
 H         4.139859        -1.146471         0.149253
 H         1.547557        -2.656657        -0.130775
 H         0.697930        -2.597354         2.349892
 H         2.122659        -3.545349         2.011077
 H         2.347424        -1.923054         4.169221
 H         3.598675        -1.922428         2.951863
 H         2.589731         1.103482         1.312578
