19
Iteration:  2296
 C        -0.268033        -0.170285         0.237523
 C         1.306908        -0.460316         0.455874
 O         2.290397        -0.150961        -0.600956
 C         3.085667        -0.872157         0.418535
 C         1.929925        -1.967681         0.606141
 C         1.798818        -2.552109         2.050106
 C         2.562607        -1.721945         2.990573
 O         2.272764        -0.310070         2.827390
 C         2.377660         0.009062         1.486762
 H        -0.865739        -0.181670         1.217600
 H        -0.353446         0.816761        -0.321676
 H        -0.578896        -1.079966        -0.358503
 H         4.102235        -1.063835         0.253265
 H         1.722201        -2.721916        -0.180308
 H         0.746437        -2.446447         2.423141
 H         2.174293        -3.697509         2.067169
 H         2.187884        -1.813948         4.003857
 H         3.647774        -1.849368         3.113481
 H         2.620774         1.032442         1.397940
