19
Iteration:  4203
 C        -0.202223        -0.148171         0.211354
 C         1.214364        -0.514260         0.410544
 O         2.234553        -0.318484        -0.680463
 C         3.068966        -0.892818         0.468252
 C         1.967151        -1.964281         0.701303
 C         1.873364        -2.598127         2.049830
 C         2.558865        -1.625870         3.060396
 O         2.339092        -0.213481         2.801606
 C         2.319062         0.070226         1.492137
 H        -0.723806         0.079702         1.229584
 H        -0.396771         0.840861        -0.365230
 H        -0.891853        -0.976604        -0.180029
 H         4.114535        -0.965926         0.040007
 H         1.638048        -2.624009        -0.131987
 H         0.862370        -2.954358         2.391052
 H         2.376059        -3.658388         2.150574
 H         2.077296        -1.678792         4.035741
 H         3.616041        -1.880181         3.070245
 H         2.493738         1.197862         1.280171
