19
Iteration:  3560charge 0 multiplicity 1
 C        -0.203134        -0.245317         0.224255
 C         1.266756        -0.526946         0.415238
 O         2.300530        -0.206243        -0.661334
 C         3.057144        -0.822072         0.425656
 C         1.903529        -1.865526         0.687304
 C         1.814592        -2.514467         2.060501
 C         2.588755        -1.717717         3.040190
 O         2.294652        -0.337559         2.854319
 C         2.327338         0.067601         1.442335
 H        -0.674009        -0.008855         1.153882
 H        -0.283783         0.603209        -0.483584
 H        -0.856374        -0.959364        -0.364632
 H         4.130057        -0.902425         0.476113
 H         1.729611        -2.632972        -0.116816
 H         0.644287        -2.799251         2.194487
 H         2.274549        -3.629883         2.096143
 H         2.218713        -1.985492         4.003803
 H         3.645408        -1.913392         3.110809
 H         2.526409         1.214304         1.481349
