19
Iteration:  3617charge 0 multiplicity 1
 C        -0.150141        -0.035839         0.269693
 C         1.262411        -0.498603         0.389665
 O         2.253185        -0.298866        -0.678471
 C         3.046470        -0.867963         0.390087
 C         1.876805        -1.908058         0.677436
 C         1.983647        -2.563460         2.080508
 C         2.672734        -1.662666         3.150687
 O         2.124078        -0.395037         2.770241
 C         2.296102         0.012915         1.463148
 H        -1.024712        -0.458254         0.760261
 H        -0.227437         1.027165         0.473125
 H        -0.332835        -0.176606        -0.798728
 H         4.080432        -1.052081         0.361728
 H         1.801071        -2.540827        -0.176339
 H         0.825714        -2.852608         2.282405
 H         2.574954        -3.621810         2.063123
 H         2.248188        -1.710525         4.194241
 H         3.741704        -1.620815         3.143015
 H         2.349895         1.174069         1.356941
