19
Iteration:  1165
 C        -0.236450        -0.161307         0.167132
 C         1.280745        -0.367683         0.378133
 O         2.226939        -0.267356        -0.645623
 C         2.994259        -1.029095         0.530980
 C         1.871275        -1.901437         0.663228
 C         1.923632        -2.604020         2.021337
 C         2.548095        -1.638145         3.074806
 O         2.304579        -0.265708         2.842727
 C         2.404415         0.039405         1.498500
 H        -0.805368        -0.872438         0.839855
 H        -0.636927         0.925945         0.418673
 H        -0.609729        -0.467008        -0.864076
 H         4.001244        -1.173157         0.273054
 H         1.560489        -2.409180        -0.291239
 H         0.839603        -2.780043         2.369096
 H         2.574737        -3.429825         2.068825
 H         2.444663        -1.991477         4.227342
 H         3.726876        -1.594553         2.675013
 H         2.900538         1.058035         1.309222
