19
Iteration:  4705
 C        -0.138255        -0.044483         0.292028
 C         1.239873        -0.574719         0.554349
 O         2.228917        -0.214085        -0.617761
 C         3.089059        -0.953469         0.396850
 C         1.908817        -1.943500         0.616366
 C         2.008972        -2.618533         1.991721
 C         2.523877        -1.622550         3.057118
 O         2.135664        -0.286408         2.738564
 C         2.331197         0.005155         1.489023
 H        -0.569005         0.397268         1.242618
 H        -0.122903         0.818897        -0.363323
 H        -0.872265        -0.752678        -0.121953
 H         4.223478        -1.170863         0.156303
 H         1.719396        -2.810690        -0.024487
 H         1.099012        -2.973016         2.348274
 H         2.762646        -3.476107         1.837728
 H         2.154747        -1.607281         4.084441
 H         3.653867        -1.695731         3.035032
 H         2.481091         1.089779         1.287536
