19
Iteration:   912
 C        -0.157344        -0.141736         0.296552
 C         1.299829        -0.637434         0.425699
 O         2.156364        -0.265722        -0.643002
 C         3.103278        -0.781891         0.437549
 C         1.945481        -2.012830         0.612973
 C         1.779166        -2.528512         2.007716
 C         2.543098        -1.722962         3.012708
 O         2.360796        -0.229618         2.850901
 C         2.340788         0.049005         1.452560
 H        -0.637174         0.044674         1.201872
 H        -0.142455         0.885443        -0.002499
 H        -0.623849        -0.787687        -0.420465
 H         4.157955        -0.915824         0.372327
 H         2.060340        -2.677504        -0.238741
 H         0.730920        -2.211396         2.385677
 H         1.990713        -3.555972         2.132892
 H         1.970169        -1.922600         3.945749
 H         3.551032        -1.971633         3.115621
 H         2.352217         1.139351         1.414863
