19
Iteration:  1691
 C        -0.111877        -0.085661         0.301354
 C         1.255448        -0.520462         0.465767
 O         2.287432        -0.208925        -0.600231
 C         3.019173        -0.935218         0.388242
 C         1.924718        -2.027857         0.666882
 C         1.922347        -2.656352         2.007578
 C         2.488523        -1.657291         3.027042
 O         2.213797        -0.237558         2.794088
 C         2.299002         0.088420         1.424492
 H        -0.761651        -0.043867         1.129106
 H        -0.035633         0.976324         0.157710
 H        -0.774665        -0.718162        -0.299321
 H         4.148308        -1.105435         0.231357
 H         1.701718        -2.732308        -0.126483
 H         0.876394        -2.920337         2.378749
 H         2.720053        -3.534503         1.974691
 H         2.328094        -1.901094         4.050406
 H         3.555637        -1.743464         2.922044
 H         2.583271         1.189387         1.287712
