19
Iteration:  1307charge 0 multiplicity 1
 C        -0.121162        -0.151626         0.235378
 C         1.256831        -0.658689         0.415040
 O         2.197577        -0.201695        -0.648005
 C         3.021469        -0.851522         0.445792
 C         2.035000        -1.972845         0.613583
 C         1.740464        -2.531864         2.068237
 C         2.550467        -1.689232         3.095369
 O         2.414909        -0.256132         2.807268
 C         2.231733         0.040349         1.420258
 H        -0.096010         0.129866         1.297656
 H         0.009583         0.826680        -0.285981
 H        -0.819642        -0.871173        -0.223745
 H         4.086070        -0.816611         0.355135
 H         1.896407        -2.668304        -0.205031
 H         0.694622        -2.388841         2.240548
 H         2.024199        -3.586811         2.159972
 H         2.078920        -1.923007         4.132593
 H         3.567418        -1.944681         3.078477
 H         2.117377         1.139838         1.558904
