19
Iteration:  1284charge 0 multiplicity 1
 C        -0.276333        -0.230517         0.278423
 C         1.286673        -0.500059         0.523290
 O         2.254595        -0.257028        -0.660303
 C         3.077569        -0.856051         0.385206
 C         1.973803        -1.917698         0.583022
 C         1.739483        -2.519706         2.009524
 C         2.510822        -1.646237         3.101911
 O         2.329489        -0.258310         2.848020
 C         2.432109         0.009273         1.450006
 H        -0.684921         0.037820         1.252803
 H        -0.332657         0.649599        -0.403684
 H        -0.504374        -1.180369        -0.215335
 H         4.023414        -1.083784        -0.069051
 H         1.913489        -2.669154        -0.181024
 H         0.675831        -2.536476         2.133755
 H         2.189042        -3.549208         2.024510
 H         2.068122        -1.882242         4.153903
 H         3.532326        -1.887747         3.064733
 H         2.780091         1.071151         1.446757
