19
Iteration:  2876charge 0 multiplicity 1
 C        -0.226395        -0.162849         0.244776
 C         1.254718        -0.529927         0.503363
 O         2.300299        -0.189217        -0.535147
 C         3.098108        -0.877983         0.491184
 C         1.881819        -1.877264         0.631988
 C         1.890663        -2.657497         1.931144
 C         2.527885        -1.682659         2.945565
 O         2.247917        -0.295208         2.845083
 C         2.325453         0.079576         1.414956
 H        -0.693308        -0.230932         1.226697
 H        -0.002259         0.805608        -0.209775
 H        -0.700750        -1.099478        -0.176683
 H         4.137434        -1.014869         0.350768
 H         1.788470        -2.509990        -0.251618
 H         0.986639        -2.995193         2.425154
 H         2.549817        -3.426266         1.821005
 H         1.992415        -1.874966         3.877313
 H         3.553295        -1.789070         3.051066
 H         2.521149         1.181385         1.160116
