19
Iteration:  2201charge 0 multiplicity 1
 C        -0.159713        -0.144788         0.323954
 C         1.272805        -0.502316         0.449711
 O         2.247728        -0.246868        -0.687611
 C         3.088378        -0.912390         0.389607
 C         1.996097        -1.884945         0.657542
 C         1.781752        -2.576596         1.953066
 C         2.568570        -1.718409         3.117989
 O         2.216873        -0.272385         2.807754
 C         2.334291         0.053981         1.486078
 H        -0.706881        -0.650555         1.068907
 H        -0.183024         0.891926         0.482079
 H        -0.426175        -0.503920        -0.657457
 H         4.117442        -1.063022         0.126605
 H         1.756486        -2.520079        -0.232799
 H         0.657433        -2.541638         2.209291
 H         2.214307        -3.583338         2.110458
 H         2.228871        -1.990820         4.161388
 H         3.688694        -1.852185         3.104398
 H         2.564751         1.136934         1.352228
