19
Iteration:  4988charge 0 multiplicity 1
 C        -0.186137        -0.307281         0.197054
 C         1.282821        -0.463663         0.501780
 O         2.219693        -0.195444        -0.649863
 C         3.061529        -0.825345         0.396258
 C         1.960519        -1.843947         0.622246
 C         1.790581        -2.561941         1.994564
 C         2.497103        -1.774131         3.069350
 O         2.307278        -0.304790         2.880079
 C         2.415377         0.091473         1.526770
 H        -0.524921         0.489530         0.832998
 H        -0.349282        -0.144460        -0.875919
 H        -0.767227        -1.168141         0.500409
 H         4.101827        -1.065013         0.056668
 H         1.679361        -2.379097        -0.300184
 H         0.668207        -2.635251         2.299350
 H         2.346821        -3.461903         1.817233
 H         2.239094        -1.826211         4.048090
 H         3.623671        -1.937117         3.030819
 H         2.623901         1.141595         1.401654
