19
Iteration:   631charge 0 multiplicity 1
 C        -0.198785        -0.180964         0.264722
 C         1.311853        -0.431451         0.450652
 O         2.220540        -0.225275        -0.661572
 C         3.075904        -0.931091         0.407287
 C         1.883365        -1.957897         0.626596
 C         1.774552        -2.575964         2.085451
 C         2.527887        -1.670369         3.057949
 O         2.327800        -0.268555         2.837134
 C         2.430858         0.057368         1.443479
 H        -0.779778        -0.130866         1.166375
 H        -0.381686         0.809590        -0.147641
 H        -0.616326        -0.901160        -0.449932
 H         4.042776        -1.109814        -0.018052
 H         1.553615        -2.599381        -0.197693
 H         0.703548        -2.788526         2.377444
 H         2.453435        -3.550286         2.186117
 H         2.164160        -1.907010         4.103140
 H         3.675647        -1.928122         3.043695
 H         2.679429         1.083774         1.280195
