19
Iteration:  3764charge 0 multiplicity 1
 C        -0.146037        -0.078808         0.165350
 C         1.203693        -0.491146         0.429873
 O         2.229357        -0.266982        -0.659636
 C         3.040389        -0.900366         0.387276
 C         1.916070        -1.924539         0.611184
 C         1.959166        -2.568687         2.082097
 C         2.664975        -1.668971         3.124147
 O         2.212977        -0.332724         2.868801
 C         2.265517         0.025287         1.466681
 H        -0.619154         0.303201         1.071270
 H        -0.166983         0.810617        -0.541721
 H        -0.851772        -0.875305        -0.168065
 H         4.161084        -1.177248         0.307839
 H         1.608501        -2.655472        -0.156767
 H         0.833469        -2.710531         2.378243
 H         2.589257        -3.547627         1.936468
 H         2.404336        -1.798523         4.176124
 H         3.780436        -1.755039         3.152227
 H         2.268860         1.074081         1.483120
