19
Iteration:   547charge 0 multiplicity 1
 C        -0.272413        -0.143360         0.262019
 C         1.268804        -0.452328         0.586391
 O         2.359242        -0.247853        -0.668567
 C         3.070074        -0.987579         0.368027
 C         1.790456        -1.899405         0.680707
 C         1.853572        -2.515991         1.989656
 C         2.561837        -1.597343         3.085335
 O         2.263887        -0.301085         2.784199
 C         2.435416        -0.002964         1.441378
 H        -0.795282        -0.862834         1.013498
 H        -0.715761         0.886573         0.472352
 H        -0.512750        -0.615127        -0.732350
 H         4.117692        -1.378592         0.076987
 H         1.353970        -2.563191        -0.073995
 H         0.860037        -2.773912         2.435233
 H         2.407954        -3.411928         1.955170
 H         2.183429        -1.777184         4.085018
 H         3.804556        -1.769059         3.070122
 H         2.770232         1.029092         1.070858
