19
Iteration:  4771charge 0 multiplicity 1
 C        -0.172722        -0.253344         0.157256
 C         1.271894        -0.549344         0.499019
 O         2.199663        -0.143016        -0.592889
 C         3.030823        -0.822480         0.421010
 C         2.013628        -2.020392         0.655650
 C         1.655588        -2.505125         2.055097
 C         2.601995        -1.707190         3.017668
 O         2.411045        -0.244870         2.800471
 C         2.319604         0.047886         1.538648
 H        -0.794947        -0.742045         0.969740
 H        -0.545528         0.795658         0.060244
 H        -0.291663        -0.891400        -0.740676
 H         4.181450        -0.941444         0.279386
 H         1.969342        -2.651781        -0.255984
 H         0.651668        -2.366448         2.260137
 H         1.695353        -3.680352         2.116938
 H         2.549687        -2.086342         4.044918
 H         3.567740        -1.835776         2.601508
 H         2.532474         1.121867         1.401318
