19
Iteration:  3970charge 0 multiplicity 1
 C        -0.156267        -0.048017         0.258610
 C         1.287025        -0.519714         0.370090
 O         2.292413        -0.269317        -0.696008
 C         2.980791        -0.936326         0.452997
 C         1.882677        -1.980551         0.742029
 C         1.977925        -2.600664         2.118509
 C         2.659181        -1.596614         3.070564
 O         2.128913        -0.306022         2.765979
 C         2.205695         0.028846         1.415988
 H        -0.529690         0.018373         1.286720
 H        -0.007111         1.014404         0.016404
 H        -0.726905        -0.788206        -0.335505
 H         4.066985        -1.099880         0.144438
 H         1.866744        -2.578233        -0.189312
 H         1.007098        -2.891879         2.514219
 H         2.589056        -3.465465         2.140901
 H         2.563898        -1.795262         4.183353
 H         3.826666        -1.619863         2.762784
 H         2.480125         1.033230         1.391685
