19
Iteration:  3708charge 0 multiplicity 1
 C        -0.161857        -0.384738         0.318839
 C         1.294592        -0.477944         0.435620
 O         2.264791        -0.253730        -0.712783
 C         3.094996        -0.734073         0.388222
 C         1.976846        -1.859857         0.663958
 C         1.668807        -2.477014         2.042850
 C         2.462618        -1.761497         3.066532
 O         2.402443        -0.286427         2.831882
 C         2.387465         0.110243         1.444384
 H        -0.636113        -0.813701         1.252801
 H        -0.568569         0.667219         0.323786
 H        -0.479876        -0.911786        -0.605271
 H         4.218357        -0.942559         0.121154
 H         1.779611        -2.650151        -0.067860
 H         0.515272        -2.468615         2.337945
 H         1.765413        -3.664573         2.109167
 H         2.021623        -1.816789         4.096012
 H         3.498119        -2.127649         2.922877
 H         2.472815         1.185163         1.460082
