19
Iteration:  3843charge 0 multiplicity 1
 C        -0.213679        -0.202253         0.387181
 C         1.290002        -0.511072         0.405578
 O         2.282548        -0.211613        -0.643840
 C         3.082269        -0.922460         0.351212
 C         1.974215        -1.930274         0.623417
 C         1.827200        -2.561323         2.114833
 C         2.524573        -1.627213         3.062258
 O         2.237664        -0.247581         2.780812
 C         2.349772         0.015714         1.414958
 H        -0.653063        -0.680845         1.287258
 H        -0.414306         0.861371         0.096138
 H        -0.471638        -0.701820        -0.587704
 H         4.158285        -1.046002         0.190179
 H         1.797138        -2.739407        -0.118058
 H         0.686512        -2.685164         2.239685
 H         2.266142        -3.635539         2.055622
 H         2.130455        -1.676320         4.066011
 H         3.624158        -1.823093         3.120222
 H         2.475410         1.133316         1.329172
