19
Iteration:  3771charge 0 multiplicity 1
 C        -0.164004        -0.014143         0.168515
 C         1.248569        -0.502217         0.471035
 O         2.206168        -0.292203        -0.687818
 C         3.026924        -0.857468         0.469878
 C         1.900623        -1.923463         0.678141
 C         2.021662        -2.574751         2.077700
 C         2.636885        -1.680102         3.113845
 O         2.189617        -0.357298         2.794367
 C         2.244407         0.021752         1.452848
 H        -0.530507         0.313468         1.161866
 H        -0.040233         0.650582        -0.659512
 H        -0.778933        -0.777921        -0.264947
 H         4.013260        -1.082863         0.084642
 H         1.795183        -2.637187        -0.145006
 H         0.992230        -2.784658         2.455801
 H         2.457881        -3.583470         1.931776
 H         2.449627        -2.099238         4.169662
 H         3.726163        -1.575142         3.193959
 H         2.527717         1.119362         1.368978
