19
Iteration:  1553
 C        -0.158695        -0.080546         0.263643
 C         1.277653        -0.464173         0.467297
 O         2.213987        -0.299228        -0.602832
 C         3.022154        -0.969062         0.464878
 C         1.893357        -1.900194         0.680000
 C         1.934473        -2.620429         1.991159
 C         2.585965        -1.641273         3.046036
 O         2.179684        -0.278593         2.776621
 C         2.354760         0.080666         1.447289
 H        -0.809223        -0.554631         1.082013
 H        -0.104133         1.028985         0.091118
 H        -0.365727        -0.786600        -0.599438
 H         4.147013        -1.251670         0.465304
 H         1.499825        -2.559972        -0.206449
 H         0.939410        -2.914338         2.268967
 H         2.535423        -3.478215         1.874663
 H         2.452735        -1.806807         4.119319
 H         3.608688        -1.537259         2.929884
 H         2.806244         1.035645         1.058426
