19
Iteration:  2000
 C        -0.171930        -0.234280         0.300012
 C         1.295670        -0.540566         0.428998
 O         2.251911        -0.141397        -0.661810
 C         3.039469        -0.875750         0.468894
 C         1.926023        -1.928301         0.630671
 C         1.808822        -2.524887         2.038570
 C         2.479163        -1.718855         3.074441
 O         2.372967        -0.279709         2.821988
 C         2.362626         0.034563         1.413632
 H        -0.604993        -0.612876         1.271060
 H        -0.102575         0.884703         0.152628
 H        -0.626284        -0.549357        -0.662398
 H         4.068788        -1.170712         0.172218
 H         1.728615        -2.597676        -0.252087
 H         0.676398        -2.702947         2.297169
 H         2.051499        -3.639180         2.074994
 H         1.920414        -1.871561         3.996689
 H         3.558473        -1.871779         3.032518
 H         2.393530         1.119523         1.277667
