19
Iteration:  3535charge 0 multiplicity 1
 C        -0.170882        -0.295001         0.229336
 C         1.307384        -0.473927         0.478342
 O         2.175047        -0.163280        -0.625861
 C         3.113328        -0.789425         0.362913
 C         2.006143        -1.867736         0.620386
 C         1.736708        -2.571223         2.031143
 C         2.454851        -1.731267         3.163213
 O         2.376247        -0.284052         2.815612
 C         2.394388         0.041241         1.430457
 H        -0.728541        -0.059898         1.196100
 H        -0.598291         0.328921        -0.644387
 H        -0.592639        -1.304242        -0.057954
 H         4.229290        -1.024106         0.159279
 H         1.983618        -2.559185        -0.269151
 H         0.497917        -2.701664         1.978586
 H         2.022156        -3.684385         2.127276
 H         1.988393        -1.818387         4.148192
 H         3.517779        -2.034042         3.374521
 H         2.695829         1.061014         1.348400
