19
Iteration:  2763charge 0 multiplicity 1
 C        -0.125027        -0.178180         0.346229
 C         1.293614        -0.462638         0.474210
 O         2.217784        -0.173136        -0.667198
 C         3.149600        -0.892526         0.379365
 C         1.942450        -1.902972         0.616441
 C         1.900559        -2.637302         2.022448
 C         2.485376        -1.718023         3.059463
 O         2.126971        -0.276266         2.820961
 C         2.431829         0.042333         1.445743
 H        -0.891472        -0.852775         0.814132
 H        -0.414919         0.876233         0.496925
 H        -0.617454        -0.480243        -0.570375
 H         4.296674        -0.928851         0.173871
 H         1.580144        -2.694778        -0.063322
 H         0.852387        -2.754656         2.179659
 H         2.399544        -3.627555         1.980351
 H         2.048386        -1.710818         4.105851
 H         3.529976        -1.935765         3.063334
 H         2.692809         1.084518         1.416714
