19
Iteration:  1074
 C        -0.240959        -0.210370         0.372588
 C         1.266247        -0.511660         0.488215
 O         2.312890        -0.196517        -0.635350
 C         3.103206        -0.894342         0.430080
 C         1.931310        -1.942308         0.621534
 C         1.792968        -2.596127         2.046974
 C         2.434821        -1.680420         3.080625
 O         2.274466        -0.271744         2.730603
 C         2.487892         0.082249         1.376776
 H        -0.633130         0.041760         1.395742
 H        -0.593275         0.714170        -0.160967
 H        -0.795799        -1.120714        -0.017693
 H         4.167871        -0.967662         0.098386
 H         1.734085        -2.494361        -0.283705
 H         0.778041        -2.783471         2.216237
 H         2.411399        -3.539185         2.044732
 H         2.038453        -1.810330         4.128057
 H         3.452583        -1.862188         3.065230
 H         2.674523         1.140393         1.171283
