19
Iteration:  4516charge 0 multiplicity 1
 C        -0.202462        -0.116451         0.341577
 C         1.287575        -0.506889         0.463700
 O         2.280919        -0.335656        -0.691062
 C         3.004037        -0.873716         0.414701
 C         1.918198        -1.924993         0.653688
 C         1.912444        -2.638339         2.042526
 C         2.595637        -1.629297         3.110506
 O         2.109335        -0.284788         2.763378
 C         2.405254         0.093125         1.394629
 H        -0.489946         0.004335         1.377765
 H        -0.211298         0.938055         0.010942
 H        -0.641252        -0.763423        -0.419011
 H         4.086508        -1.141853         0.257366
 H         1.632021        -2.602841        -0.173455
 H         0.999628        -2.862359         2.511818
 H         2.650925        -3.528093         1.957275
 H         2.309107        -1.678880         4.176366
 H         3.755633        -1.601091         3.104512
 H         2.541899         1.106339         1.163780
