19
Iteration:  3632
 C        -0.188616        -0.048974         0.224808
 C         1.241985        -0.479478         0.477810
 O         2.247574        -0.323747        -0.723680
 C         3.018855        -0.916324         0.441646
 C         1.967918        -1.901459         0.669699
 C         2.004270        -2.594492         2.049791
 C         2.552875        -1.691552         3.112605
 O         2.181103        -0.308882         2.829830
 C         2.321526         0.090152         1.404767
 H        -0.647006        -0.825572         0.873472
 H        -0.476004         0.968714         0.586881
 H        -0.562240         0.070937        -0.788043
 H         4.121050        -1.045003         0.136806
 H         1.670568        -2.638071        -0.095246
 H         1.092537        -2.875466         2.416815
 H         2.431825        -3.542499         1.897834
 H         2.081903        -2.057444         4.075024
 H         3.682393        -1.721012         3.299171
 H         2.650586         1.080376         1.506605
