19
Iteration:  3406charge 0 multiplicity 1
 C        -0.229822        -0.135674         0.111556
 C         1.245162        -0.558503         0.453024
 O         2.288202        -0.221299        -0.708821
 C         3.024720        -0.784537         0.469403
 C         1.893149        -1.907488         0.669907
 C         1.863106        -2.593963         2.113922
 C         2.674673        -1.706659         3.054634
 O         2.275102        -0.345707         2.882968
 C         2.292485         0.049709         1.484959
 H        -0.945984        -0.578635         0.784131
 H        -0.323044         0.918514         0.373862
 H        -0.534403        -0.254738        -0.928155
 H         4.085772        -0.924855         0.335969
 H         1.794974        -2.622948        -0.195292
 H         0.841943        -2.682182         2.556243
 H         2.311347        -3.692277         1.961000
 H         2.315479        -2.010938         4.022233
 H         3.848272        -1.815862         2.840576
 H         2.365310         1.169121         1.362071
