19
Iteration:    40charge 0 multiplicity 1
 C        -0.246623        -0.098001         0.258943
 C         1.225750        -0.444054         0.529028
 O         2.319379        -0.313149        -0.605496
 C         3.044433        -0.998627         0.378979
 C         1.823221        -1.917353         0.664055
 C         1.836986        -2.501597         2.069899
 C         2.588929        -1.604679         3.045521
 O         2.242643        -0.276764         2.761610
 C         2.486617        -0.015044         1.417584
 H        -0.783029        -0.939941         0.735002
 H        -0.605991         0.861805         0.643634
 H        -0.384117        -0.046823        -0.883647
 H         4.072026        -1.423963         0.242056
 H         1.432969        -2.546694        -0.188843
 H         0.712308        -2.615031         2.418940
 H         2.313891        -3.538063         2.052233
 H         2.295036        -1.824890         4.145726
 H         3.800433        -1.750336         2.928725
 H         2.976060         1.004475         1.226374
