19
Iteration:  2834charge 0 multiplicity 1
 C        -0.118048        -0.220115         0.140771
 C         1.298806        -0.573061         0.478238
 O         2.171803        -0.159030        -0.644291
 C         3.069756        -0.748631         0.389969
 C         1.986323        -1.889466         0.656560
 C         1.836875        -2.498459         2.072533
 C         2.568710        -1.777148         3.078112
 O         2.298594        -0.369134         2.848412
 C         2.315500         0.057097         1.506224
 H        -0.889837        -0.200024         0.973402
 H        -0.112008         0.804258        -0.283892
 H        -0.841868        -0.917178        -0.463896
 H         4.109689        -0.817696         0.155952
 H         1.669066        -2.664061        -0.146327
 H         0.718110        -2.360450         2.226485
 H         1.974306        -3.584762         2.028198
 H         2.217688        -2.334085         3.949733
 H         3.666976        -2.091413         2.999842
 H         2.405234         1.205001         1.614436
