19
Iteration:  4320charge 0 multiplicity 1
 C        -0.178769        -0.076952         0.234035
 C         1.278925        -0.536603         0.473534
 O         2.224766        -0.302533        -0.662910
 C         3.032766        -0.968968         0.394548
 C         1.897211        -1.962826         0.662883
 C         1.989758        -2.502215         2.111237
 C         2.609983        -1.586037         3.106545
 O         2.181281        -0.290298         2.843623
 C         2.314910         0.032315         1.356628
 H        -0.846455        -0.487986         0.950145
 H        -0.093409         1.009165         0.275121
 H        -0.405086        -0.423558        -0.746087
 H         4.112642        -1.060388        -0.018565
 H         1.561939        -2.613497        -0.174673
 H         1.026327        -2.883220         2.472196
 H         2.459883        -3.460768         1.997055
 H         2.070525        -1.923598         4.024185
 H         3.708381        -1.754533         3.325743
 H         2.500598         1.086572         1.117760
