19
Iteration:  1768
 C        -0.179352        -0.271636         0.260253
 C         1.222362        -0.453751         0.516755
 O         2.355452        -0.190558        -0.561638
 C         2.975071        -0.989804         0.438568
 C         1.851987        -1.918760         0.627662
 C         1.821417        -2.477368         1.976364
 C         2.555252        -1.671434         2.968706
 O         2.314746        -0.224799         2.839944
 C         2.399976         0.031370         1.453190
 H        -0.735537        -0.594832         1.135305
 H        -0.638092         0.703678         0.059467
 H        -0.515999        -0.961201        -0.589253
 H         4.072673        -1.298853         0.236540
 H         1.629622        -2.409188        -0.312084
 H         0.786508        -2.816296         2.281142
 H         2.286150        -3.589324         1.918800
 H         2.218039        -1.902205         3.952090
 H         3.662598        -1.788962         2.912291
 H         2.688266         1.116826         1.246162
