19
Iteration:  1131charge 0 multiplicity 1
 C        -0.215684        -0.203529         0.209258
 C         1.301273        -0.523802         0.560875
 O         2.255117        -0.197995        -0.661040
 C         3.041773        -0.880965         0.384219
 C         1.976961        -1.939025         0.668731
 C         1.770616        -2.560138         2.068948
 C         2.549000        -1.670932         3.052262
 O         2.352724        -0.289044         2.797644
 C         2.325556         0.040839         1.471667
 H        -0.903264        -0.420702         1.064600
 H        -0.180053         0.902092        -0.111459
 H        -0.525886        -0.770401        -0.718232
 H         4.076849        -0.971538         0.116783
 H         1.688312        -2.573577        -0.179138
 H         0.675456        -2.505574         2.271881
 H         1.947295        -3.607718         2.227583
 H         2.423516        -1.911606         4.185574
 H         3.656384        -1.855427         2.889352
 H         2.360686         1.147136         1.263884
