19
Iteration:   409
 C        -0.042403        -0.167585         0.225756
 C         1.289053        -0.601830         0.411149
 O         2.159468        -0.206196        -0.692451
 C         3.050094        -0.838406         0.425009
 C         1.901756        -1.956056         0.660990
 C         1.716650        -2.487341         2.166019
 C         2.574164        -1.742009         3.062503
 O         2.379576        -0.325044         2.874395
 C         2.286142         0.111515         1.347615
 H        -0.494552         0.007857         1.185777
 H         0.049536         0.805629        -0.260680
 H        -0.848114        -0.793534        -0.206487
 H         4.186706        -0.917472         0.233668
 H         1.906946        -2.778017        -0.115351
 H         0.630712        -2.425868         2.429435
 H         2.021292        -3.627244         1.999595
 H         2.310586        -1.910869         4.142421
 H         3.795491        -2.131385         2.930192
 H         2.443374         1.239754         1.345771
