19
Iteration:  4497
 C        -0.140225        -0.090272         0.426542
 C         1.285927        -0.520665         0.423937
 O         2.188703        -0.353191        -0.734040
 C         3.127103        -0.934532         0.468180
 C         1.989144        -1.982378         0.692039
 C         1.943173        -2.576590         2.014713
 C         2.451083        -1.624374         3.077531
 O         2.175579        -0.232664         2.738833
 C         2.349567         0.102439         1.422374
 H        -0.393246         0.066815         1.486102
 H        -0.271070         0.752605        -0.179450
 H        -0.802454        -0.838257         0.005387
 H         4.253232        -0.923256         0.070942
 H         1.809982        -2.515828        -0.234234
 H         0.861316        -2.912143         2.136272
 H         2.699863        -3.460380         1.984127
 H         1.971665        -1.969319         3.950242
 H         3.476799        -1.774423         3.081391
 H         2.425478         1.250568         1.499262
