19
Iteration:  2123charge 0 multiplicity 1
 C        -0.141474        -0.114053         0.244994
 C         1.275619        -0.605397         0.481984
 O         2.138123        -0.216463        -0.630085
 C         3.131649        -0.788355         0.366725
 C         2.061626        -1.917189         0.665861
 C         1.716379        -2.582338         2.015918
 C         2.527816        -1.786036         3.097507
 O         2.357464        -0.303580         2.829931
 C         2.296195         0.086270         1.432195
 H        -0.745887        -0.063754         1.138253
 H        -0.004791         0.867430        -0.228019
 H        -0.582662        -0.746711        -0.534106
 H         4.153259        -0.878687         0.188770
 H         2.114768        -2.619621        -0.223520
 H         0.571806        -2.594749         2.213221
 H         1.843412        -3.695653         2.218259
 H         2.319461        -1.864776         4.217964
 H         3.623493        -1.992630         2.979593
 H         2.298429         1.182811         1.356584
