19
Iteration:  2048
 C        -0.092583        -0.058539         0.353910
 C         1.342447        -0.540418         0.473761
 O         2.184171        -0.241794        -0.669419
 C         3.108867        -0.919174         0.421646
 C         1.959610        -1.900442         0.674165
 C         1.846125        -2.613272         2.002951
 C         2.545677        -1.713359         3.076849
 O         2.139149        -0.310667         2.794989
 C         2.331091         0.063418         1.404924
 H        -0.587845        -0.403381         1.211771
 H        -0.094086         0.985943         0.201798
 H        -0.532059        -0.426176        -0.546407
 H         4.114779        -1.041845         0.090645
 H         1.732241        -2.561987        -0.197125
 H         0.939004        -2.911418         2.343568
 H         2.396854        -3.613721         1.952461
 H         2.141710        -1.679425         4.133241
 H         3.619983        -1.655775         2.948895
 H         2.528613         1.114402         1.139543
