19
Iteration:  2548charge 0 multiplicity 1
 C        -0.179831        -0.079156         0.368629
 C         1.233340        -0.586866         0.461065
 O         2.298560        -0.217419        -0.642198
 C         3.161137        -0.852580         0.451063
 C         1.957719        -1.971327         0.480364
 C         1.902620        -2.588729         2.010764
 C         2.473162        -1.716443         3.083064
 O         2.231979        -0.240171         2.844525
 C         2.260710         0.016811         1.426618
 H        -0.645064        -0.547117         1.201381
 H        -0.079753         0.986913         0.570769
 H        -0.635180        -0.242500        -0.630145
 H         4.213417        -0.953866         0.263086
 H         1.754725        -2.701831        -0.349519
 H         0.796875        -2.930162         2.093208
 H         2.384715        -3.649412         1.794602
 H         2.052210        -1.878914         4.150361
 H         3.611047        -1.755557         3.263468
 H         2.285992         1.123094         1.211819
