19
Iteration:  2840
 C        -0.131144        -0.225476         0.155920
 C         1.242198        -0.552903         0.448638
 O         2.188916        -0.157914        -0.642207
 C         3.100562        -0.775604         0.359989
 C         1.939080        -1.871285         0.628477
 C         1.819311        -2.524540         2.046651
 C         2.610318        -1.761644         3.098368
 O         2.296756        -0.370119         2.924010
 C         2.302121         0.049708         1.469671
 H        -0.764441        -0.039643         1.010007
 H        -0.270403         0.722446        -0.386971
 H        -0.662130        -0.847689        -0.508703
 H         4.200594        -0.820565         0.170567
 H         1.890047        -2.551768        -0.188326
 H         0.762881        -2.531257         2.290272
 H         2.089024        -3.618598         2.013519
 H         2.178107        -2.124036         4.066829
 H         3.691340        -2.098720         3.169742
 H         2.459242         1.089865         1.550589
