19
Iteration:   709charge 0 multiplicity 1
 C        -0.063858        -0.066282         0.343047
 C         1.247103        -0.625591         0.514669
 O         2.188559        -0.315448        -0.611746
 C         3.039846        -0.800520         0.388594
 C         1.979352        -1.976758         0.612374
 C         1.801055        -2.540113         2.042870
 C         2.502178        -1.669349         3.042695
 O         2.287963        -0.316744         2.746914
 C         2.358172         0.085629         1.422221
 H        -0.779167         0.061145         1.182097
 H         0.051325         0.990528         0.101171
 H        -0.668874        -0.659573        -0.286432
 H         4.168607        -0.981059         0.281492
 H         2.028391        -2.747490        -0.182944
 H         0.651124        -2.567776         2.159810
 H         2.314741        -3.633346         1.915951
 H         2.084122        -1.781413         4.073607
 H         3.730015        -1.854171         3.206532
 H         2.360816         1.187208         1.172097
