19
Iteration:  4163
 C        -0.179336        -0.005281         0.171632
 C         1.292082        -0.515983         0.464922
 O         2.156518        -0.355788        -0.610554
 C         3.020115        -0.954005         0.366828
 C         1.956681        -2.007583         0.696569
 C         1.994869        -2.623657         2.139315
 C         2.645736        -1.568233         3.041467
 O         2.148926        -0.269402         2.768098
 C         2.292973         0.046348         1.453302
 H        -0.943117        -0.136375         0.922241
 H         0.026656         1.024985         0.220883
 H        -0.515527        -0.325366        -0.796211
 H         4.047851        -1.016460         0.189634
 H         1.721153        -2.655518        -0.136142
 H         0.974248        -2.764147         2.419727
 H         2.575414        -3.574650         2.068832
 H         2.469118        -1.794066         4.128774
 H         3.758283        -1.526035         3.170588
 H         2.644729         1.092469         1.466338
