19
Iteration:   336charge 0 multiplicity 1
 C        -0.145166        -0.190381         0.324686
 C         1.301940        -0.450311         0.500660
 O         2.307584        -0.208603        -0.677821
 C         3.007677        -1.049631         0.268880
 C         1.782670        -1.910151         0.665472
 C         1.854274        -2.500153         2.068600
 C         2.513289        -1.637067         3.088287
 O         2.233211        -0.259166         2.830733
 C         2.489831         0.037948         1.431909
 H        -0.872022        -0.880288         0.750593
 H        -0.485007         0.846136         0.560323
 H        -0.449145        -0.498638        -0.737143
 H         3.998898        -1.422456         0.046912
 H         1.342040        -2.594961        -0.125645
 H         0.875537        -2.933299         2.396435
 H         2.564602        -3.224677         2.100874
 H         2.131831        -1.964017         4.102339
 H         3.649577        -1.712580         3.095680
 H         2.871592         1.061075         1.365538
