19
Iteration:  4348charge 0 multiplicity 1
 C        -0.201165        -0.031901         0.152176
 C         1.257059        -0.490202         0.426248
 O         2.203614        -0.369000        -0.691988
 C         3.046929        -0.923292         0.522063
 C         1.889947        -1.943717         0.767400
 C         1.951506        -2.683166         2.160447
 C         2.624137        -1.598988         2.979319
 O         2.196260        -0.268504         2.853914
 C         2.348159         0.124014         1.382219
 H        -1.007563        -0.559181         0.790428
 H        -0.332139         1.033228         0.523310
 H        -0.363378        -0.214625        -0.956540
 H         4.022206        -1.092551         0.191056
 H         1.751037        -2.487881        -0.170487
 H         1.010952        -3.119667         2.560307
 H         2.732016        -3.535658         1.974405
 H         2.540608        -1.957543         4.034729
 H         3.698110        -1.709890         2.860602
 H         2.477668         1.197184         1.111931
