19
Iteration:   836charge 0 multiplicity 1
 C        -0.204003        -0.112425         0.337841
 C         1.292093        -0.478478         0.442132
 O         2.295831        -0.196676        -0.691306
 C         3.074154        -0.952968         0.371221
 C         1.877466        -2.027828         0.693442
 C         1.864885        -2.619259         2.071519
 C         2.508588        -1.642610         3.065732
 O         2.215899        -0.250569         2.817992
 C         2.432271         0.057021         1.405735
 H        -0.729236        -0.284041         1.286269
 H        -0.314593         0.955167         0.011853
 H        -0.825255        -0.662036        -0.463895
 H         4.108097        -0.980786         0.073434
 H         1.459922        -2.601694        -0.172308
 H         0.851190        -3.176582         2.299866
 H         2.554606        -3.427879         2.092142
 H         2.209907        -1.904350         4.131304
 H         3.674834        -1.777775         2.940807
 H         2.611944         1.125633         1.306467
