19
Iteration:  3116charge 0 multiplicity 1
 C        -0.225165        -0.078497         0.427340
 C         1.253774        -0.561926         0.440494
 O         2.320919        -0.188493        -0.656441
 C         3.103637        -0.828361         0.462678
 C         2.021576        -1.955939         0.606468
 C         1.936682        -2.676190         1.995421
 C         2.411402        -1.658546         3.042768
 O         2.253507        -0.305515         2.773765
 C         2.260973         0.013040         1.383312
 H        -0.855071        -0.283693         1.235015
 H        -0.248572         0.967781         0.208453
 H        -0.840262        -0.524960        -0.412314
 H         4.124730        -0.810538         0.173007
 H         2.012632        -2.525730        -0.282326
 H         0.946421        -3.023389         2.063681
 H         2.503607        -3.699481         2.180495
 H         1.988533        -1.860959         4.082338
 H         3.639844        -1.726664         3.393689
 H         2.318342         1.136576         1.359766
