19
Iteration:   405
 C        -0.051106        -0.131367         0.224971
 C         1.291485        -0.620067         0.398948
 O         2.176947        -0.228202        -0.690725
 C         3.034604        -0.800591         0.428328
 C         1.934956        -1.970724         0.649816
 C         1.720090        -2.503587         2.177625
 C         2.599092        -1.774263         3.090459
 O         2.385422        -0.308050         2.886280
 C         2.236913         0.105849         1.317177
 H        -0.540467         0.009893         1.252055
 H         0.138088         0.884614        -0.145511
 H        -0.750585        -0.786914        -0.250368
 H         4.080019        -0.919398         0.122665
 H         1.820451        -2.685835        -0.130598
 H         0.678032        -2.338905         2.396622
 H         1.984423        -3.526624         2.026758
 H         2.308077        -1.943154         4.094496
 H         3.641558        -2.165090         2.961822
 H         2.384410         1.175196         1.279990
