19
Iteration:  4385
 C        -0.185692        -0.174859         0.216496
 C         1.241655        -0.630673         0.437379
 O         2.252056        -0.189198        -0.694662
 C         3.054058        -0.940884         0.363692
 C         1.938239        -1.970930         0.667964
 C         1.754939        -2.516814         2.140568
 C         2.669919        -1.632453         3.075087
 O         2.296897        -0.249561         2.885877
 C         2.290610         0.052533         1.405203
 H        -0.936429        -0.726517         0.724103
 H        -0.233936         0.917463         0.215813
 H        -0.448693        -0.347147        -0.820533
 H         4.188414        -1.103552         0.128027
 H         1.814478        -2.711752        -0.146643
 H         0.767984        -2.456397         2.664116
 H         2.184534        -3.593883         2.402861
 H         2.491024        -1.895694         4.127407
 H         3.702793        -1.633167         2.789432
 H         2.454262         1.128852         1.365043
