19
Iteration:  2068charge 0 multiplicity 1
 C        -0.183537        -0.107399         0.322363
 C         1.287960        -0.456781         0.457626
 O         2.344106        -0.188257        -0.650408
 C         3.015404        -0.989634         0.335513
 C         1.798453        -1.929974         0.638702
 C         1.978331        -2.596550         1.994485
 C         2.519650        -1.646419         3.035174
 O         2.144304        -0.317344         2.818330
 C         2.418417         0.027463         1.490373
 H        -0.751371        -0.369907         1.216067
 H        -0.405065         0.945049         0.065196
 H        -0.652505        -0.682389        -0.456772
 H         4.044164        -1.188935         0.349128
 H         1.573073        -2.744388        -0.131536
 H         0.965682        -2.808981         2.460257
 H         2.715027        -3.502213         2.160378
 H         2.082647        -1.803937         4.072141
 H         3.623569        -1.586420         2.996775
 H         2.904790         1.013529         1.470879
