19
Iteration:  1847
 C        -0.172772        -0.137617         0.299992
 C         1.247859        -0.551886         0.371730
 O         2.247126        -0.215847        -0.656511
 C         3.047022        -0.933378         0.410113
 C         1.933618        -1.924143         0.666533
 C         1.874348        -2.568196         2.008479
 C         2.473575        -1.686443         3.076933
 O         2.304703        -0.244288         2.840061
 C         2.356037         0.039240         1.484226
 H        -0.611228        -0.428113         1.249669
 H        -0.246607         0.928968         0.182310
 H        -0.715916        -0.572030        -0.528191
 H         4.094475        -1.162101         0.106374
 H         1.938062        -2.610318        -0.193601
 H         0.763131        -2.843726         2.050890
 H         2.543771        -3.564374         1.889667
 H         2.073335        -1.762118         4.033250
 H         3.624097        -1.783710         3.209361
 H         2.523824         1.099495         1.433146
