19
Iteration:  4551
 C        -0.137728        -0.148983         0.152397
 C         1.233503        -0.559897         0.441316
 O         2.201563        -0.261009        -0.600753
 C         2.963496        -0.924314         0.476987
 C         1.916052        -2.027264         0.615210
 C         1.829028        -2.515119         2.078040
 C         2.721624        -1.627217         3.067607
 O         2.249798        -0.211334         2.837949
 C         2.359077         0.050618         1.472262
 H        -0.870742        -0.590410         0.829721
 H        -0.141228         0.902969         0.202067
 H        -0.564290        -0.454774        -0.788951
 H         4.079567        -1.064318         0.149401
 H         1.774060        -2.607867        -0.314360
 H         0.769926        -2.705056         2.380958
 H         2.219204        -3.627368         2.072106
 H         2.626712        -1.927863         4.092002
 H         3.792113        -1.702062         2.768408
 H         2.402517         1.150384         1.359027
