19
Iteration:  1769charge 0 multiplicity 1
 C        -0.190086        -0.278422         0.261687
 C         1.222981        -0.453332         0.511865
 O         2.360926        -0.191726        -0.563398
 C         2.983534        -0.988268         0.431798
 C         1.847202        -1.918499         0.626974
 C         1.820633        -2.482805         1.977484
 C         2.557802        -1.673956         2.976059
 O         2.318628        -0.217186         2.845841
 C         2.397641         0.031099         1.454950
 H        -0.711541        -0.594626         1.136144
 H        -0.628448         0.672467         0.055627
 H        -0.511560        -0.928024        -0.578242
 H         4.066680        -1.321321         0.217225
 H         1.628250        -2.375080        -0.329993
 H         0.778641        -2.804360         2.280963
 H         2.250869        -3.590585         1.877371
 H         2.227287        -1.887030         3.925796
 H         3.618013        -1.764876         2.911090
 H         2.670992         1.103298         1.286929
