19
Iteration:  2077charge 0 multiplicity 1
 C        -0.305382        -0.105983         0.286291
 C         1.292147        -0.436438         0.475280
 O         2.366055        -0.167369        -0.681382
 C         3.031029        -1.050834         0.410913
 C         1.872282        -1.928847         0.653509
 C         1.978810        -2.578723         2.005192
 C         2.542055        -1.664982         3.033187
 O         2.156071        -0.262413         2.873094
 C         2.402438         0.025363         1.461206
 H        -0.686266        -0.316440         1.338026
 H        -0.383720         0.996687        -0.036525
 H        -0.699526        -0.757028        -0.517571
 H         4.066829        -1.344545         0.121926
 H         1.460587        -2.576786        -0.182833
 H         0.910910        -3.132861         2.356687
 H         2.465698        -3.590549         1.774855
 H         2.184295        -1.983451         4.041035
 H         3.670687        -1.733833         3.130877
 H         2.829132         0.997080         1.186620
