19
Iteration:   282charge 0 multiplicity 1
 C        -0.100422        -0.069523         0.299448
 C         1.258053        -0.668571         0.487418
 O         2.210603        -0.316325        -0.673200
 C         3.124583        -0.766520         0.434738
 C         1.999447        -1.932198         0.674506
 C         1.640073        -2.598347         2.021084
 C         2.533329        -1.652028         3.077526
 O         2.392883        -0.275733         2.793839
 C         2.287204         0.032952         1.387069
 H        -0.584875        -0.170419         1.287107
 H        -0.129618         1.017683         0.043518
 H        -0.843657        -0.684911        -0.305751
 H         4.173265        -0.822252         0.167867
 H         1.872157        -2.531796        -0.233628
 H         0.516171        -2.483072         2.121256
 H         2.006098        -3.586662         2.041873
 H         2.266720        -1.855840         4.182934
 H         3.743512        -1.891509         2.990313
 H         2.354763         1.115641         1.375935
