19
Iteration:  3945charge 0 multiplicity 1
 C        -0.230818        -0.121065         0.173747
 C         1.250818        -0.519879         0.573101
 O         2.220734        -0.403025        -0.673785
 C         3.061036        -0.874061         0.470971
 C         1.887062        -1.920600         0.710836
 C         1.897344        -2.620999         2.008864
 C         2.644565        -1.624693         3.035019
 O         2.226947        -0.224539         2.802498
 C         2.359215         0.118006         1.451454
 H        -0.971281        -0.437361         1.001398
 H        -0.244648         0.982914         0.087343
 H        -0.384202        -0.772019        -0.723385
 H         4.101071        -0.971224         0.186240
 H         1.916985        -2.397566        -0.261505
 H         0.863089        -2.904479         2.330967
 H         2.404026        -3.597462         1.984589
 H         2.316309        -1.786676         4.103233
 H         3.707162        -1.745640         2.925190
 H         2.626372         1.216271         1.406307
