19
Iteration:  1425
 C        -0.154011        -0.199580         0.314968
 C         1.272136        -0.620596         0.399609
 O         2.221017        -0.277427        -0.713616
 C         3.073110        -0.753740         0.388776
 C         2.033840        -1.978448         0.690955
 C         1.696756        -2.539955         2.034323
 C         2.481310        -1.714266         3.109811
 O         2.374078        -0.268655         2.828649
 C         2.352914         0.103075         1.451791
 H        -0.747283        -0.346572         1.244309
 H        -0.161172         0.910419         0.504708
 H        -0.468936        -0.327799        -0.710282
 H         4.041168        -0.937921        -0.101545
 H         2.145927        -2.651598        -0.142927
 H         0.556008        -2.532171         2.227025
 H         2.149694        -3.630386         2.207773
 H         2.162170        -1.721451         4.207212
 H         3.441564        -1.981101         3.031147
 H         2.224303         1.182811         1.192384
