19
Iteration:  3744
 C        -0.228968        -0.213647         0.205803
 C         1.252867        -0.551668         0.452022
 O         2.283788        -0.163221        -0.616918
 C         3.053734        -0.900412         0.415522
 C         1.906413        -1.992549         0.627868
 C         1.814260        -2.554033         2.041010
 C         2.538223        -1.662682         3.011250
 O         2.326704        -0.209891         2.901289
 C         2.333324         0.026958         1.496578
 H        -0.720267        -0.091358         1.169355
 H        -0.241645         0.706939        -0.459039
 H        -0.780849        -1.031955        -0.349683
 H         4.078021        -1.098221         0.006684
 H         1.805874        -2.736690        -0.196762
 H         0.763738        -2.616819         2.314325
 H         2.356934        -3.487740         2.000475
 H         2.492719        -2.034665         3.990985
 H         3.667560        -1.689205         2.884796
 H         2.704148         1.020465         1.281096
