19
Iteration:  2519
 C        -0.149890        -0.171623         0.289315
 C         1.317946        -0.504093         0.450116
 O         2.093532        -0.202629        -0.686409
 C         3.183531        -0.794509         0.480234
 C         2.114813        -1.934193         0.639083
 C         1.741591        -2.555783         2.035657
 C         2.452093        -1.766946         3.016028
 O         2.254432        -0.342218         2.832253
 C         2.376005         0.051726         1.458937
 H        -0.666307        -0.338164         1.279299
 H        -0.222859         0.949189         0.110342
 H        -0.599178        -0.649780        -0.608978
 H         4.281082        -0.817272         0.213720
 H         1.965308        -2.745425        -0.121690
 H         0.712577        -2.628847         2.046260
 H         2.114181        -3.579309         1.961461
 H         2.207729        -1.839833         4.091365
 H         3.531948        -1.899934         2.988722
 H         2.604836         1.159293         1.458851
