19
Iteration:  2558
 C        -0.219218        -0.084058         0.379534
 C         1.288120        -0.532251         0.362732
 O         2.315287        -0.194884        -0.661921
 C         3.069203        -0.928088         0.436513
 C         1.946053        -1.932785         0.606218
 C         1.921183        -2.614393         1.917956
 C         2.489956        -1.655089         3.108903
 O         2.212855        -0.261023         2.823695
 C         2.311561        -0.009987         1.472192
 H        -0.807398        -0.635789         1.078473
 H        -0.317355         0.984919         0.578359
 H        -0.749651        -0.320301        -0.568764
 H         4.136926        -1.037802         0.451894
 H         1.807356        -2.596506        -0.266260
 H         0.888575        -2.946553         2.360231
 H         2.691197        -3.463779         1.994583
 H         1.940294        -2.043269         3.996243
 H         3.592101        -1.819296         3.137997
 H         2.618784         1.044434         1.420429
