19
Iteration:  3818
 C        -0.134050        -0.040377         0.315648
 C         1.238965        -0.582446         0.423396
 O         2.260869        -0.292136        -0.661800
 C         3.015822        -0.926099         0.413770
 C         1.936723        -1.978562         0.618923
 C         1.997706        -2.560612         2.048876
 C         2.607722        -1.600100         3.022795
 O         2.110000        -0.256432         2.862792
 C         2.290028         0.024829         1.429738
 H        -0.456534        -0.006119         1.338772
 H         0.034339         0.900482        -0.232801
 H        -0.800062        -0.531771        -0.394587
 H         4.138429        -1.118777         0.400819
 H         1.743649        -2.787241        -0.090273
 H         0.909154        -2.936309         2.314239
 H         2.659309        -3.520119         1.842490
 H         2.270216        -1.913040         4.009330
 H         3.648134        -1.611916         3.182753
 H         2.410220         1.050152         1.319818
