19
Iteration:   565charge 0 multiplicity 1
 C        -0.144632        -0.240813         0.247156
 C         1.306197        -0.428191         0.414012
 O         2.241793        -0.250399        -0.647094
 C         2.985594        -0.999786         0.363468
 C         1.831367        -1.894749         0.651663
 C         1.748861        -2.523033         2.076796
 C         2.624726        -1.698001         3.030390
 O         2.317808        -0.239256         2.888225
 C         2.414652         0.097334         1.471271
 H        -0.780448        -0.837554         0.841479
 H        -0.349383         0.771967         0.465105
 H        -0.317799        -0.560503        -0.758378
 H         3.990394        -1.226594         0.213280
 H         1.574794        -2.541691        -0.199852
 H         0.694763        -2.567002         2.400125
 H         2.241846        -3.540969         2.016802
 H         2.452435        -1.881574         4.112195
 H         3.606712        -1.867851         2.839587
 H         2.665908         1.126434         1.342226
