19
Iteration:    44charge 0 multiplicity 1
 C        -0.268682        -0.063569         0.247833
 C         1.223983        -0.479119         0.530851
 O         2.303993        -0.290968        -0.638955
 C         3.082272        -1.002043         0.421306
 C         1.842849        -1.925615         0.696642
 C         1.845199        -2.491391         2.106023
 C         2.592754        -1.659389         3.040235
 O         2.255705        -0.282708         2.753034
 C         2.463339         0.002600         1.368884
 H        -0.785744        -0.869034         0.696800
 H        -0.603046         0.856787         0.712326
 H        -0.423380         0.007903        -0.823846
 H         4.111730        -1.336990         0.313115
 H         1.502025        -2.529926        -0.114852
 H         0.857079        -2.511934         2.326921
 H         2.234112        -3.545303         2.113990
 H         2.241519        -1.915198         4.054275
 H         3.609169        -1.761007         3.016576
 H         2.856080         0.994267         1.122966
