19
Iteration:  2688charge 0 multiplicity 1
 C        -0.106311        -0.246784         0.264473
 C         1.286387        -0.438943         0.505462
 O         2.280350        -0.155750        -0.625397
 C         3.073744        -0.888774         0.387429
 C         1.886480        -1.877117         0.652021
 C         1.830770        -2.586830         1.957988
 C         2.515979        -1.687571         3.071502
 O         2.229203        -0.319982         2.838945
 C         2.375243         0.026863         1.449771
 H        -0.882792        -0.316866         1.123182
 H        -0.271087         0.754300        -0.225885
 H        -0.605304        -1.021434        -0.450814
 H         4.147872        -1.006163         0.054472
 H         1.495123        -2.500565        -0.182675
 H         0.822078        -2.820114         2.483204
 H         2.351884        -3.485361         1.889199
 H         2.039878        -1.981437         4.073530
 H         3.708227        -1.916098         3.107999
 H         2.629455         1.089393         1.434352
