19
Iteration:  1531charge 0 multiplicity 1
 C        -0.145944         0.046823         0.305195
 C         1.240618        -0.619204         0.402301
 O         2.278821        -0.326251        -0.673028
 C         3.002119        -0.819371         0.369011
 C         2.009632        -2.006657         0.606371
 C         1.849272        -2.577231         2.062450
 C         2.610410        -1.638115         3.070608
 O         2.208881        -0.290082         2.870511
 C         2.231067         0.024675         1.473098
 H        -0.722487        -0.215079         1.242644
 H         0.183901         1.057478        -0.047411
 H        -0.681055        -0.584494        -0.469899
 H         4.125889        -0.951065         0.094302
 H         2.024924        -2.841562        -0.219071
 H         0.904642        -2.784252         2.518106
 H         2.376243        -3.473735         2.194957
 H         2.415864        -1.774986         4.154581
 H         3.704346        -1.844378         2.837249
 H         2.225880         1.127846         1.251490
