19
Iteration:  2847
 C        -0.199999        -0.197472         0.158576
 C         1.240030        -0.514027         0.429546
 O         2.217644        -0.160232        -0.640481
 C         3.072072        -0.796063         0.380187
 C         1.946204        -1.886249         0.616047
 C         1.808841        -2.556328         1.995070
 C         2.595462        -1.764843         3.119067
 O         2.310357        -0.365248         2.950381
 C         2.304946         0.032264         1.475569
 H        -0.673540        -0.047097         1.185649
 H        -0.178819         0.735209        -0.421386
 H        -0.514542        -1.052570        -0.518417
 H         4.178899        -0.867373         0.159531
 H         1.947645        -2.576968        -0.325804
 H         0.753549        -2.633754         2.385164
 H         2.287949        -3.633121         1.977785
 H         2.214837        -1.789199         4.167229
 H         3.791471        -1.881672         3.135983
 H         2.463950         1.135999         1.396792
