19
Iteration:  2606charge 0 multiplicity 1
 C        -0.116382        -0.141365         0.207998
 C         1.269493        -0.521237         0.516146
 O         2.192012        -0.226134        -0.630919
 C         3.043816        -0.837114         0.391939
 C         1.985553        -1.929007         0.610259
 C         1.857772        -2.558207         2.008516
 C         2.506984        -1.713361         3.071981
 O         2.230157        -0.316936         2.851420
 C         2.365366         0.071532         1.491099
 H        -0.753138        -0.406931         1.093707
 H        -0.148127         0.968992         0.113158
 H        -0.456494        -0.667612        -0.674628
 H         4.095755        -1.043884         0.144539
 H         1.851925        -2.674599        -0.206438
 H         0.840134        -2.695681         2.254532
 H         2.401504        -3.604351         1.992445
 H         2.204988        -2.156992         4.026686
 H         3.616551        -1.868997         2.854461
 H         2.569833         1.175737         1.487015
