19
Iteration:   693
 C        -0.137926         0.009664         0.428934
 C         1.258397        -0.598035         0.428300
 O         2.251230        -0.302918        -0.736507
 C         3.102921        -0.825547         0.410181
 C         2.029257        -1.977265         0.655264
 C         1.858117        -2.595140         2.045772
 C         2.508493        -1.685110         3.084022
 O         2.259332        -0.278658         2.786415
 C         2.244181        -0.002649         1.391740
 H        -0.349280         0.094224         1.499795
 H         0.058474         0.898391        -0.192590
 H        -0.977880        -0.465647        -0.178255
 H         4.144425        -0.846654         0.130006
 H         1.785187        -2.616813        -0.200481
 H         0.801629        -2.694532         2.208253
 H         2.117078        -3.568144         2.220830
 H         2.058293        -1.853639         4.079430
 H         3.504524        -1.852483         3.116405
 H         2.263201         1.082271         1.366941
