19
Iteration:   907
 C        -0.089860        -0.126264         0.312061
 C         1.274618        -0.664720         0.435866
 O         2.170177        -0.237341        -0.677799
 C         3.097834        -0.778135         0.445026
 C         1.967475        -2.036440         0.635138
 C         1.787992        -2.504827         2.020666
 C         2.507285        -1.712365         3.034839
 O         2.358654        -0.274470         2.840466
 C         2.271537         0.093996         1.438746
 H        -0.589665        -0.053248         1.366805
 H         0.007268         0.895991        -0.176847
 H        -0.748652        -0.760111        -0.354782
 H         4.225421        -0.868127         0.161906
 H         1.880957        -2.757725        -0.209216
 H         0.796890        -2.368923         2.371248
 H         1.988625        -3.643906         2.110062
 H         2.027356        -1.841063         3.999666
 H         3.670929        -2.071036         3.074596
 H         2.411317         1.189205         1.369266
