19
Iteration:  4001
 C        -0.179335        -0.067870         0.317927
 C         1.257991        -0.605013         0.454719
 O         2.223742        -0.303901        -0.637423
 C         3.120637        -0.926851         0.377215
 C         1.966160        -2.008481         0.694903
 C         1.951177        -2.531342         2.048934
 C         2.562170        -1.584194         3.027741
 O         2.118396        -0.240205         2.806279
 C         2.320459        -0.012355         1.448052
 H        -0.573691         0.319853         1.324553
 H        -0.017833         0.855455        -0.361375
 H        -0.991066        -0.687797        -0.205968
 H         4.143455        -0.844867        -0.077432
 H         1.895621        -2.618512        -0.209232
 H         0.845762        -2.646448         2.183150
 H         2.570219        -3.407008         2.115421
 H         2.413570        -1.977141         4.080274
 H         3.556659        -1.696924         2.890295
 H         2.617977         1.024661         1.312931
