19
Iteration:  1649charge 0 multiplicity 1
 C        -0.191282        -0.260518         0.337654
 C         1.293150        -0.441679         0.393573
 O         2.262740        -0.241890        -0.718375
 C         3.080965        -0.849851         0.439265
 C         1.942859        -1.913296         0.663605
 C         1.788521        -2.499657         2.072510
 C         2.501667        -1.713620         3.038616
 O         2.293564        -0.334028         2.820128
 C         2.382980         0.083708         1.460395
 H        -0.526685        -0.589477         1.330583
 H        -0.386217         0.775140         0.097770
 H        -0.569403        -1.015967        -0.398798
 H         4.209563        -0.962987         0.160127
 H         1.657943        -2.467712        -0.269675
 H         0.662428        -2.450682         2.058509
 H         2.023261        -3.601830         2.064234
 H         2.068482        -1.808778         4.003745
 H         3.676787        -1.928761         3.153363
 H         2.632951         1.194818         1.487424
