19
Iteration:  3046
 C        -0.158799        -0.185169         0.258208
 C         1.297374        -0.509226         0.444266
 O         2.269905        -0.126799        -0.662991
 C         3.061208        -0.846507         0.497656
 C         1.894881        -1.955829         0.619553
 C         1.860374        -2.607270         2.039342
 C         2.558422        -1.727507         3.004688
 O         2.248468        -0.312886         2.820146
 C         2.289423         0.062768         1.456154
 H        -0.641086        -0.360511         1.260528
 H        -0.354288         0.848735        -0.114678
 H        -0.538674        -0.884995        -0.497007
 H         4.155640        -1.023342         0.453623
 H         1.777267        -2.714230        -0.200709
 H         0.829707        -2.797555         2.393942
 H         2.206467        -3.579583         1.939041
 H         2.347192        -1.833303         4.096700
 H         3.745316        -1.730514         3.004397
 H         2.475710         1.127931         1.493828
