19
Iteration:  3109
 C        -0.168690        -0.049573         0.400421
 C         1.237737        -0.601059         0.419655
 O         2.301294        -0.227803        -0.649692
 C         3.114684        -0.828228         0.433275
 C         2.009773        -1.963566         0.637760
 C         1.957362        -2.700123         1.932925
 C         2.391073        -1.677562         3.080962
 O         2.223598        -0.259736         2.755829
 C         2.262049         0.075850         1.463329
 H        -0.766019        -0.406809         1.343553
 H        -0.118763         1.061278         0.306595
 H        -0.925477        -0.527624        -0.205149
 H         4.242852        -0.888696         0.297197
 H         1.966868        -2.618250        -0.283951
 H         0.919986        -3.065719         2.237868
 H         2.719942        -3.460362         1.888476
 H         2.103938        -1.946441         4.038150
 H         3.410081        -1.741683         3.101648
 H         2.333222         1.114847         1.337665
