19
Iteration:  2461
 C        -0.170230        -0.216811         0.235579
 C         1.263865        -0.482134         0.452789
 O         2.246393        -0.171950        -0.555552
 C         3.033452        -0.893632         0.483103
 C         1.950840        -1.926157         0.537162
 C         1.757162        -2.630798         1.959173
 C         2.589756        -1.704682         2.997486
 O         2.284935        -0.233882         2.865649
 C         2.394618         0.060977         1.518515
 H        -0.809298        -0.156906         1.107966
 H        -0.297809         0.777812        -0.219452
 H        -0.744455        -0.984311        -0.345786
 H         4.038281        -1.153298         0.243795
 H         1.895009        -2.714028        -0.245519
 H         0.797720        -2.542334         2.270412
 H         2.115999        -3.757163         1.976821
 H         2.258470        -1.757877         4.076263
 H         3.670145        -2.013918         2.869524
 H         2.675979         1.109222         1.289249
