19
Iteration:   762
 C        -0.209541        -0.295400         0.179946
 C         1.237055        -0.456190         0.510516
 O         2.273526        -0.189331        -0.588661
 C         3.076349        -0.977037         0.481302
 C         1.791672        -1.832469         0.666273
 C         1.795140        -2.452512         2.068321
 C         2.604870        -1.675552         3.000646
 O         2.380933        -0.317322         2.771251
 C         2.387519         0.025272         1.436567
 H        -0.835997        -0.949610         0.822803
 H        -0.444883         0.795510         0.242799
 H        -0.622572        -0.470216        -0.843563
 H         4.154752        -1.114746         0.475010
 H         1.439902        -2.557301        -0.126819
 H         0.819654        -2.555272         2.397973
 H         1.999366        -3.535210         1.958176
 H         2.234174        -1.893817         4.035232
 H         3.612105        -1.806606         2.999677
 H         2.914399         0.953473         1.182203
