19
Iteration:  3588charge 0 multiplicity 1
 C        -0.119047        -0.079802         0.223549
 C         1.282279        -0.529802         0.460846
 O         2.238904        -0.255180        -0.559698
 C         3.027408        -0.943953         0.451162
 C         1.966629        -2.044877         0.644796
 C         1.896865        -2.655566         2.026099
 C         2.628145        -1.617217         2.887873
 O         2.177471        -0.244302         2.874655
 C         2.238628         0.098928         1.498387
 H        -0.833359        -0.170196         1.080575
 H        -0.189263         0.995187        -0.118209
 H        -0.563373        -0.434807        -0.696700
 H         4.170673        -1.067928         0.369507
 H         1.838099        -2.652759        -0.267965
 H         0.890549        -2.821028         2.150945
 H         2.275361        -3.552666         2.310463
 H         2.499569        -1.868692         3.988944
 H         3.736838        -1.518776         2.649891
 H         2.390841         1.135762         1.372576
