19
Iteration:    68charge 0 multiplicity 1
 C        -0.067484        -0.021783         0.269377
 C         1.243169        -0.593595         0.338669
 O         2.203287        -0.359511        -0.707271
 C         3.031744        -0.788105         0.405299
 C         1.954223        -2.000291         0.668465
 C         1.702728        -2.579002         2.164452
 C         2.553255        -1.659638         3.111430
 O         2.408652        -0.272122         2.798466
 C         2.271516         0.047556         1.454038
 H        -0.799285        -0.777231         0.696620
 H        -0.085186         0.847430         0.969761
 H        -0.260933         0.344857        -0.683461
 H         4.064810        -1.042925         0.206909
 H         1.924139        -2.628646        -0.228391
 H         0.628265        -2.645277         2.232896
 H         2.090931        -3.561250         2.157232
 H         2.356362        -1.732696         4.132729
 H         3.542156        -1.869345         2.984020
 H         2.412043         1.092584         1.313741
