19
Iteration:  4742
 C        -0.240316        -0.170446         0.119526
 C         1.282216        -0.507511         0.438432
 O         2.191144        -0.267343        -0.674249
 C         3.079355        -0.823119         0.456737
 C         1.908702        -1.893578         0.683553
 C         1.847551        -2.512520         2.063176
 C         2.591914        -1.718562         3.074111
 O         2.366802        -0.339387         2.830089
 C         2.298690         0.077975         1.534621
 H        -0.725440        -0.136564         1.044465
 H        -0.299752         0.809622        -0.352704
 H        -0.670808        -0.959656        -0.458222
 H         4.071823        -1.078381         0.339075
 H         1.715754        -2.499931        -0.197833
 H         0.762024        -2.900833         2.284142
 H         2.257789        -3.467583         1.827248
 H         2.438473        -2.073374         4.133241
 H         3.765560        -1.778344         2.978166
 H         2.474003         1.156026         1.653729
