19
Iteration:  4909
 C        -0.168900        -0.219790         0.223114
 C         1.269099        -0.479156         0.509947
 O         2.249570        -0.294641        -0.598573
 C         3.060155        -0.887341         0.403483
 C         1.912552        -1.870937         0.685826
 C         1.851127        -2.563810         1.958876
 C         2.524334        -1.686213         3.027255
 O         2.226136        -0.321091         2.887799
 C         2.400684         0.146069         1.408465
 H        -0.773050        -0.241202         1.144223
 H        -0.270202         0.805293        -0.025793
 H        -0.552399        -0.858901        -0.571806
 H         4.129729        -0.984709         0.137721
 H         1.781480        -2.507376        -0.251791
 H         0.800678        -2.883684         2.351648
 H         2.316700        -3.560395         1.913409
 H         2.406697        -1.925452         4.073966
 H         3.620215        -1.672742         2.743746
 H         2.670536         1.202939         1.444109
