19
Iteration:  4694charge 0 multiplicity 1
 C        -0.076433        -0.014341         0.385775
 C         1.274745        -0.562110         0.436203
 O         2.213323        -0.292701        -0.610549
 C         3.016250        -0.905313         0.376019
 C         1.979667        -1.941306         0.665840
 C         1.972542        -2.571759         2.008925
 C         2.489790        -1.603733         3.051551
 O         2.099377        -0.301034         2.815505
 C         2.323869        -0.022164         1.375210
 H        -0.447553         0.308825         1.398729
 H         0.028850         0.790863        -0.328461
 H        -0.736843        -0.801635        -0.008052
 H         4.132920        -0.968830         0.034190
 H         1.874144        -2.466572        -0.288489
 H         1.111897        -3.149343         2.107176
 H         2.800558        -3.358721         2.096739
 H         2.236317        -2.007676         4.041819
 H         3.648512        -1.684499         3.015287
 H         2.503529         1.071765         1.244403
