19
Iteration:  2655charge 0 multiplicity 1
 C        -0.210934        -0.240737         0.190938
 C         1.298444        -0.465027         0.464136
 O         2.268677        -0.200528        -0.617101
 C         3.107964        -0.822604         0.493192
 C         1.978038        -1.859898         0.621378
 C         1.724332        -2.565039         2.037575
 C         2.608620        -1.739673         2.976198
 O         2.308728        -0.322553         2.882432
 C         2.293212         0.049607         1.477011
 H        -0.703068         0.011091         1.183541
 H        -0.377365         0.662395        -0.457643
 H        -0.533592        -1.149102        -0.428925
 H         4.153578        -0.849521         0.098724
 H         1.658395        -2.572140        -0.136267
 H         0.568756        -2.542497         2.292073
 H         1.970800        -3.566890         1.975759
 H         2.353499        -2.039861         4.054217
 H         3.596980        -2.204879         2.813869
 H         2.416454         1.133910         1.425497
