19
Iteration:  1693charge 0 multiplicity 1
 C        -0.110526        -0.065894         0.291635
 C         1.241368        -0.532496         0.454086
 O         2.269218        -0.219550        -0.591105
 C         3.030608        -0.922538         0.395503
 C         1.934767        -2.028609         0.664550
 C         1.925662        -2.651983         2.016912
 C         2.497440        -1.676058         3.031145
 O         2.212038        -0.228925         2.795714
 C         2.291623         0.087863         1.413967
 H        -0.718979        -0.056036         1.191375
 H        -0.008271         0.981443         0.154657
 H        -0.778425        -0.672959        -0.313564
 H         4.167397        -1.150660         0.273214
 H         1.783453        -2.745746        -0.190693
 H         0.863456        -2.925520         2.356631
 H         2.657848        -3.548438         1.921862
 H         2.300486        -1.866858         4.054736
 H         3.649035        -1.753068         2.947621
 H         2.580406         1.179943         1.301047
