19
Iteration:  2052charge 0 multiplicity 1
 C        -0.078993        -0.073361         0.338996
 C         1.338636        -0.497128         0.491589
 O         2.215247        -0.242495        -0.640750
 C         3.071355        -0.912152         0.417733
 C         1.914791        -1.915596         0.627747
 C         1.873196        -2.593483         2.041175
 C         2.551149        -1.665417         3.095626
 O         2.126351        -0.322176         2.769926
 C         2.345746         0.022938         1.401145
 H        -0.517309        -0.447320         1.308811
 H        -0.122706         1.033179         0.213430
 H        -0.496656        -0.560310        -0.598688
 H         4.110825        -1.068063        -0.021682
 H         1.642358        -2.466878        -0.238638
 H         0.866739        -3.115671         2.295152
 H         2.379096        -3.498635         1.848599
 H         2.231834        -1.808797         4.114542
 H         3.680784        -1.733269         3.027186
 H         2.496196         1.099139         1.203245
