19
Iteration:  1427charge 0 multiplicity 1
 C        -0.182623        -0.199203         0.321415
 C         1.273890        -0.618653         0.417217
 O         2.232630        -0.255495        -0.715215
 C         3.096044        -0.763807         0.384570
 C         2.027107        -1.987607         0.690549
 C         1.692918        -2.543877         2.036444
 C         2.474414        -1.716498         3.104509
 O         2.371386        -0.266092         2.818008
 C         2.354727         0.104812         1.436485
 H        -0.745994        -0.415027         1.250293
 H        -0.141850         0.911154         0.444040
 H        -0.444677        -0.426590        -0.699121
 H         4.043407        -0.936426        -0.046021
 H         2.081714        -2.634479        -0.137589
 H         0.613193        -2.504285         2.295555
 H         2.135573        -3.594613         2.227895
 H         2.148542        -1.698000         4.194134
 H         3.503151        -2.060303         3.074976
 H         2.242046         1.188063         1.238537
