19
Iteration:  2441charge 0 multiplicity 1
 C        -0.096122        -0.092004         0.272390
 C         1.283691        -0.564063         0.458538
 O         2.194326        -0.276537        -0.676058
 C         3.098786        -0.733581         0.362947
 C         2.021416        -1.868389         0.659846
 C         1.787054        -2.527862         2.069573
 C         2.538401        -1.744431         3.060157
 O         2.274786        -0.422466         2.879839
 C         2.280100         0.042134         1.408828
 H        -0.872248        -0.104217         1.074451
 H        -0.068823         0.969590        -0.121708
 H        -0.658967        -0.746998        -0.505222
 H         4.183439        -0.854912         0.221794
 H         1.740896        -2.639065        -0.160213
 H         0.713438        -2.464307         2.241409
 H         2.268556        -3.574267         1.996626
 H         2.269579        -2.051750         4.134214
 H         3.631289        -1.878784         2.915120
 H         2.262003         1.170592         1.621840
