19
Iteration:    81charge 0 multiplicity 1
 C        -0.059523         0.006490         0.262471
 C         1.274983        -0.720061         0.499576
 O         2.162996        -0.394029        -0.684998
 C         3.088890        -0.762897         0.355233
 C         1.966232        -1.997706         0.652547
 C         1.724082        -2.487123         2.053067
 C         2.458535        -1.661830         3.049103
 O         2.431160        -0.232579         2.865981
 C         2.326816         0.005828         1.426923
 H        -0.957289        -0.718793         0.503412
 H        -0.151793         0.863643         0.974039
 H        -0.369775         0.277222        -0.767767
 H         4.162736        -0.596723         0.090688
 H         1.859827        -2.814606        -0.119791
 H         0.593790        -2.510138         2.395976
 H         2.077505        -3.420530         2.359692
 H         2.193216        -1.913249         4.036740
 H         3.443048        -2.039155         2.851624
 H         2.221581         1.087475         1.376455
