19
Iteration:  2604
 C        -0.109437        -0.145704         0.218756
 C         1.265840        -0.505784         0.525471
 O         2.192061        -0.227925        -0.641292
 C         3.050981        -0.836547         0.388668
 C         1.966719        -1.917284         0.628035
 C         1.869463        -2.574900         2.009624
 C         2.514736        -1.691264         3.060591
 O         2.215851        -0.328397         2.864347
 C         2.378373         0.063752         1.484658
 H        -0.739780        -0.461528         1.022373
 H        -0.076160         0.942278         0.129486
 H        -0.403408        -0.704843        -0.670744
 H         4.058861        -1.025677         0.086219
 H         1.814922        -2.662380        -0.194628
 H         0.756676        -2.700815         2.197905
 H         2.422972        -3.635269         1.907533
 H         2.135052        -2.100161         4.030048
 H         3.608693        -1.848166         2.882938
 H         2.584555         1.182041         1.440907
