19
Iteration:   382
 C        -0.233390        -0.021672         0.216510
 C         1.222501        -0.576825         0.463434
 O         2.218530        -0.343904        -0.691405
 C         3.081652        -0.856794         0.432619
 C         1.989927        -1.973152         0.644154
 C         1.790018        -2.517039         2.086794
 C         2.561630        -1.650325         3.039917
 O         2.378210        -0.324334         2.806647
 C         2.329974         0.024831         1.483865
 H        -0.915844        -0.242349         1.100765
 H        -0.085228         1.083579         0.268140
 H        -0.838346        -0.418293        -0.573798
 H         4.133494        -0.888814         0.323476
 H         2.106729        -2.746501        -0.068285
 H         0.721967        -2.373461         2.259681
 H         2.032553        -3.509114         2.040527
 H         2.237313        -1.786505         4.065635
 H         3.649519        -1.867577         2.980525
 H         2.438930         1.072985         1.533192
