19
Iteration:  1299charge 0 multiplicity 1
 C        -0.142629        -0.183459         0.279382
 C         1.245097        -0.648841         0.413761
 O         2.217427        -0.229557        -0.638013
 C         3.112021        -0.864965         0.370925
 C         1.989822        -1.961459         0.639452
 C         1.802037        -2.438283         2.017282
 C         2.499655        -1.705834         3.074334
 O         2.394593        -0.273529         2.848898
 C         2.281360         0.040692         1.464102
 H        -0.684434         0.120270         1.233493
 H        -0.099665         0.668520        -0.404541
 H        -0.928625        -0.813492        -0.170598
 H         4.212284        -0.806542         0.349215
 H         1.719949        -2.618569        -0.239129
 H         0.752792        -2.397928         2.330823
 H         1.942673        -3.467608         2.151124
 H         2.038597        -1.883169         3.998743
 H         3.544952        -1.955167         3.120235
 H         2.203181         1.134164         1.329899
