19
Iteration:    48charge 0 multiplicity 1
 C        -0.260011        -0.036619         0.246140
 C         1.244769        -0.502995         0.515884
 O         2.287940        -0.274772        -0.673366
 C         3.088637        -1.012965         0.454430
 C         1.866628        -1.921839         0.724450
 C         1.857448        -2.505048         2.114063
 C         2.578311        -1.691337         3.046025
 O         2.275015        -0.282296         2.752333
 C         2.429115         0.023416         1.339040
 H        -0.926111        -0.898706         0.676216
 H        -0.562509         0.894972         0.797700
 H        -0.465893         0.024140        -0.814156
 H         4.164365        -1.213877         0.321124
 H         1.578315        -2.630243        -0.102678
 H         0.706537        -2.477050         2.394906
 H         2.138317        -3.521445         2.159741
 H         2.209946        -1.934339         4.011495
 H         3.717539        -1.822109         3.070525
 H         2.711109         1.048501         1.124029
