19
Iteration:  2218charge 0 multiplicity 1
 C        -0.055263        -0.033758         0.300250
 C         1.273751        -0.616023         0.375490
 O         2.226950        -0.214549        -0.670857
 C         3.057977        -0.799267         0.410819
 C         1.972715        -2.007504         0.567579
 C         1.861277        -2.540472         2.100618
 C         2.497773        -1.677475         3.072653
 O         2.257398        -0.348823         2.855110
 C         2.265029        -0.000256         1.405284
 H        -0.678505        -0.456879         1.187574
 H        -0.095642         1.088595         0.569674
 H        -0.686157        -0.299984        -0.596092
 H         4.162319        -0.764780         0.207477
 H         1.899258        -2.790970        -0.190012
 H         0.841058        -2.704281         2.445375
 H         2.114728        -3.594738         2.072245
 H         2.266272        -1.823911         4.124822
 H         3.593684        -1.826425         3.159631
 H         2.287738         1.069382         1.457597
