19
Iteration:  2303
 C        -0.218209        -0.192482         0.251247
 C         1.232507        -0.531373         0.416776
 O         2.248618        -0.143930        -0.607092
 C         3.096081        -0.895054         0.491062
 C         1.968472        -1.969248         0.609293
 C         1.736792        -2.536338         1.991415
 C         2.551931        -1.704498         3.012614
 O         2.320921        -0.290817         2.845369
 C         2.371758         0.020381         1.482812
 H        -0.623727        -0.128272         1.253469
 H        -0.092064         0.764378        -0.246901
 H        -0.702860        -0.883948        -0.409994
 H         4.241653        -0.849872         0.278870
 H         1.851411        -2.733168        -0.138003
 H         0.800021        -2.457466         2.491971
 H         2.124214        -3.633963         1.878273
 H         2.092543        -1.917290         3.994976
 H         3.677446        -1.812482         2.897793
 H         2.579737         1.101439         1.311902
