19
Iteration:  2619charge 0 multiplicity 1
 C        -0.227358        -0.094059         0.205921
 C         1.245843        -0.588451         0.375781
 O         2.248336        -0.181547        -0.588986
 C         3.088010        -0.841630         0.474787
 C         2.039430        -1.982600         0.595355
 C         1.781271        -2.553642         2.022556
 C         2.572982        -1.768777         3.043179
 O         2.346734        -0.281038         2.862354
 C         2.235645         0.019908         1.495781
 H        -0.815700        -0.230006         1.194384
 H        -0.200197         0.992069        -0.106368
 H        -0.843613        -0.642543        -0.526271
 H         4.217592        -0.832589         0.322123
 H         1.986350        -2.590655        -0.306777
 H         0.737862        -2.573081         2.137712
 H         2.161418        -3.596497         2.165196
 H         2.309126        -1.820977         4.091797
 H         3.695192        -1.892177         2.979953
 H         2.336893         1.085323         1.302395
