19
Iteration:  4142
 C        -0.145715        -0.048962         0.250565
 C         1.246095        -0.588520         0.520976
 O         2.248916        -0.238193        -0.669131
 C         3.037143        -0.992381         0.423096
 C         1.891284        -2.006425         0.688271
 C         1.917183        -2.621375         2.104989
 C         2.651072        -1.545274         2.997426
 O         2.115479        -0.191123         2.812654
 C         2.325300        -0.007610         1.399233
 H        -0.844628        -0.637740         0.817950
 H        -0.220621         0.981437         0.500889
 H        -0.229982        -0.281012        -0.800369
 H         4.043927        -1.201994         0.138998
 H         1.683266        -2.798903        -0.015364
 H         0.891387        -2.892873         2.299143
 H         2.697497        -3.338743         2.209379
 H         2.642623        -1.892570         4.082604
 H         3.825532        -1.571775         2.913084
 H         2.534704         1.020394         1.128895
