19
Iteration:  4232charge 0 multiplicity 1
 C        -0.124371        -0.390811         0.354245
 C         1.300925        -0.602766         0.516125
 O         2.257522        -0.171223        -0.660613
 C         3.080095        -0.904549         0.351394
 C         1.963062        -1.952926         0.601759
 C         1.700350        -2.477386         2.025120
 C         2.486478        -1.598785         3.074420
 O         2.314767        -0.186843         2.800257
 C         2.404017         0.019929         1.446220
 H        -0.636647         0.114407         1.151047
 H        -0.198957         0.484011        -0.305900
 H        -0.728039        -1.223537         0.043568
 H         4.104431        -0.992918        -0.159385
 H         1.513248        -2.553982        -0.215753
 H         0.614298        -2.455896         2.283896
 H         2.036191        -3.470628         2.067205
 H         2.197753        -1.605544         4.153070
 H         3.556663        -1.950347         3.196967
 H         2.597062         1.062525         1.304084
