19
Iteration:  2532
 C        -0.057302        -0.097800         0.362123
 C         1.297681        -0.661534         0.489214
 O         2.208802        -0.207085        -0.623451
 C         3.053972        -0.760715         0.367033
 C         2.086846        -1.982936         0.646801
 C         1.786731        -2.617997         1.957236
 C         2.453312        -1.674912         3.038560
 O         2.255826        -0.300965         2.797342
 C         2.277517         0.047379         1.463508
 H        -0.802112        -0.409556         1.153613
 H         0.110534         0.997630         0.334380
 H        -0.510805        -0.439023        -0.568502
 H         4.171917        -0.774621         0.173411
 H         2.056111        -2.566521        -0.262622
 H         0.707285        -2.601507         2.167435
 H         2.155270        -3.551181         2.176071
 H         2.035564        -1.967965         3.962974
 H         3.470069        -1.914287         2.978774
 H         2.320099         1.123834         1.393585
