19
Iteration:    59
 C        -0.161933        -0.041295         0.291504
 C         1.281787        -0.532903         0.377117
 O         2.234409        -0.295204        -0.727543
 C         3.048491        -0.943721         0.460889
 C         1.938580        -1.962410         0.718053
 C         1.751662        -2.593760         2.108577
 C         2.585255        -1.673603         3.114805
 O         2.358333        -0.277795         2.772895
 C         2.304531         0.078371         1.378387
 H        -1.051956        -0.722769         0.573713
 H        -0.222900         0.925771         0.852658
 H        -0.342690         0.239528        -0.748315
 H         4.126911        -1.017038         0.247477
 H         1.889957        -2.773737        -0.058798
 H         0.673031        -2.537394         2.540332
 H         2.046457        -3.610108         2.115947
 H         2.273034        -1.701947         4.127815
 H         3.663204        -1.975698         3.039452
 H         2.417299         1.157471         1.371372
