19
Iteration:  2319
 C        -0.106943        -0.155716         0.272547
 C         1.307212        -0.633279         0.418879
 O         2.226317        -0.235948        -0.604261
 C         3.051357        -0.777541         0.461104
 C         2.008882        -1.940181         0.583968
 C         1.700997        -2.527500         1.993217
 C         2.496339        -1.720803         3.016880
 O         2.402643        -0.272061         2.873537
 C         2.241390         0.046981         1.480945
 H        -0.587454        -0.208511         1.313659
 H        -0.027061         0.925972        -0.066851
 H        -0.781836        -0.855294        -0.377013
 H         4.021210        -1.088388         0.333677
 H         1.960476        -2.552752        -0.369672
 H         0.560049        -2.504636         1.863980
 H         2.157439        -3.605713         2.201434
 H         2.410415        -1.818692         4.109914
 H         3.510243        -2.009894         2.747491
 H         2.259491         1.131749         1.393496
