19
Iteration:   563charge 0 multiplicity 1
 C        -0.152067        -0.246084         0.254978
 C         1.294455        -0.426951         0.423530
 O         2.254168        -0.246036        -0.657246
 C         3.004939        -1.014323         0.361895
 C         1.812801        -1.878188         0.656752
 C         1.775811        -2.518776         2.086787
 C         2.600752        -1.690853         3.013440
 O         2.315339        -0.236058         2.883276
 C         2.411215         0.080326         1.474657
 H        -0.794561        -0.847171         0.856088
 H        -0.378254         0.797165         0.442439
 H        -0.335376        -0.540134        -0.794305
 H         4.042196        -1.264434         0.172007
 H         1.524766        -2.537083        -0.188097
 H         0.743868        -2.556256         2.400027
 H         2.254860        -3.591301         2.009832
 H         2.406406        -1.911668         4.097347
 H         3.687176        -1.842572         2.858513
 H         2.695632         1.138771         1.452478
