19
Iteration:  4922charge 0 multiplicity 1
 C        -0.231788        -0.214417         0.192998
 C         1.242097        -0.517249         0.494428
 O         2.246948        -0.198501        -0.694136
 C         3.073477        -0.828820         0.434308
 C         1.965690        -1.908004         0.558522
 C         1.740855        -2.593201         2.070271
 C         2.633494        -1.677987         3.044594
 O         2.265396        -0.264100         2.870275
 C         2.397216         0.020586         1.568415
 H        -0.820688        -0.219426         1.132107
 H        -0.309638         0.649891        -0.464401
 H        -0.632465        -1.070529        -0.366836
 H         4.181696        -1.026663         0.329958
 H         1.762863        -2.509268        -0.363132
 H         0.641126        -2.526548         2.174488
 H         2.191244        -3.591824         2.197238
 H         2.420692        -1.975620         4.014343
 H         3.758073        -1.953451         2.913289
 H         2.689673         1.048214         1.440919
