19
Iteration:   207
 C        -0.208562        -0.017267         0.260396
 C         1.254341        -0.548148         0.457867
 O         2.177719        -0.334866        -0.646208
 C         3.106546        -0.897954         0.457571
 C         1.977301        -1.894975         0.583035
 C         1.819961        -2.567341         2.034039
 C         2.559714        -1.693988         3.121568
 O         2.312159        -0.302398         2.811895
 C         2.361357         0.026282         1.433554
 H        -0.492411         0.541700         1.135169
 H        -0.229258         0.700351        -0.562995
 H        -1.024076        -0.636605        -0.083566
 H         4.170739        -1.020419         0.245916
 H         1.945409        -2.595325        -0.193606
 H         0.707505        -2.575726         2.215129
 H         2.231385        -3.666624         2.013272
 H         2.275495        -1.841602         4.176361
 H         3.597194        -1.898567         3.063422
 H         2.465978         1.092206         1.349547
