19
Iteration:  1349charge 0 multiplicity 1
 C        -0.119545        -0.162711         0.232992
 C         1.250467        -0.447276         0.506868
 O         2.267237        -0.325188        -0.660702
 C         2.998422        -0.961518         0.410477
 C         1.847207        -1.863469         0.665578
 C         1.900516        -2.537215         1.977515
 C         2.631506        -1.651662         3.061139
 O         2.192666        -0.295908         2.843912
 C         2.363379         0.085109         1.490546
 H        -0.732627        -0.359203         1.150167
 H        -0.402281         0.878521        -0.063271
 H        -0.500321        -0.790479        -0.640473
 H         4.010054        -1.342374         0.225725
 H         1.654541        -2.427810        -0.224784
 H         0.858092        -2.737047         2.389882
 H         2.285117        -3.627615         1.913068
 H         2.285387        -1.800101         4.173923
 H         3.858006        -1.713509         2.907249
 H         2.792382         1.111192         1.283762
