19
Iteration:  2426
 C        -0.148365        -0.027967         0.268023
 C         1.251127        -0.580583         0.420805
 O         2.222511        -0.269409        -0.765137
 C         3.066611        -0.723237         0.393680
 C         2.001315        -1.919788         0.694289
 C         1.806733        -2.625320         2.072192
 C         2.592077        -1.814122         3.167877
 O         2.234927        -0.350419         2.790978
 C         2.273728         0.084392         1.486505
 H        -0.559941        -0.222693         1.244422
 H         0.042680         1.027036         0.209090
 H        -0.587048        -0.325214        -0.649368
 H         4.099636        -0.767516         0.089978
 H         2.177558        -2.513597        -0.168227
 H         0.795669        -2.778088         2.283963
 H         2.129251        -3.695435         1.974825
 H         2.301884        -1.824734         4.213722
 H         3.738012        -2.045231         3.136070
 H         2.352080         1.125811         1.392948
