19
Iteration:  3368charge 0 multiplicity 1
 C        -0.172571        -0.365922         0.131580
 C         1.200415        -0.540841         0.560598
 O         2.280397        -0.112347        -0.585998
 C         3.058585        -0.800453         0.439953
 C         1.821835        -1.905415         0.638921
 C         1.727307        -2.566199         1.991286
 C         2.576653        -1.708235         2.991884
 O         2.402983        -0.293219         2.860728
 C         2.378190         0.090875         1.482029
 H        -1.031971        -0.800188         0.715990
 H        -0.207775         0.731049        -0.027322
 H        -0.263485        -1.032495        -0.774149
 H         4.150476        -0.906009         0.159262
 H         1.803434        -2.554139        -0.226026
 H         0.678711        -2.404935         2.301500
 H         2.114636        -3.572099         2.186360
 H         2.481323        -1.822604         4.107930
 H         3.637993        -1.952243         2.991193
 H         2.552526         1.151827         1.525006
