19
Iteration:  4063
 C        -0.193875        -0.397363         0.278957
 C         1.269201        -0.569077         0.447859
 O         2.181835        -0.142147        -0.666453
 C         3.088793        -0.933717         0.403296
 C         1.957203        -1.944452         0.534339
 C         1.761744        -2.487247         2.026914
 C         2.399292        -1.624939         3.132962
 O         2.507545        -0.163989         2.881764
 C         2.396609         0.033429         1.430096
 H        -0.777379        -0.700003         1.157863
 H        -0.400793         0.636527         0.203694
 H        -0.519272        -1.040940        -0.506521
 H         4.068906        -0.886529         0.034848
 H         1.788149        -2.768436        -0.131847
 H         0.638940        -2.433215         2.088452
 H         1.877699        -3.576837         2.279987
 H         1.852129        -1.661524         4.070263
 H         3.568963        -1.922881         3.272191
 H         2.668042         1.129114         1.217455
