19
Iteration:   102
 C        -0.160587        -0.110261         0.297236
 C         1.290408        -0.549389         0.489424
 O         2.195780        -0.270895        -0.634589
 C         3.039512        -0.946428         0.402664
 C         2.007077        -1.917494         0.627888
 C         1.735255        -2.561400         2.077056
 C         2.516536        -1.664362         3.115027
 O         2.368484        -0.246075         2.740966
 C         2.394977         0.052258         1.406942
 H        -0.933526        -0.921839         0.547378
 H        -0.373616         0.839387         0.827446
 H        -0.405156        -0.030321        -0.748519
 H         4.045341        -1.284561         0.113911
 H         1.817358        -2.585808        -0.246100
 H         0.652082        -2.419107         2.229649
 H         1.865553        -3.598904         2.251013
 H         2.106139        -1.722776         4.078926
 H         3.516114        -1.917678         3.168766
 H         2.742694         1.067036         1.264874
