19
Iteration:  2088charge 0 multiplicity 1
 C        -0.221840        -0.109504         0.265379
 C         1.229757        -0.438983         0.456122
 O         2.327225        -0.242063        -0.611139
 C         3.082521        -0.978611         0.437880
 C         1.869234        -1.880941         0.603323
 C         1.878732        -2.644697         1.967218
 C         2.590029        -1.685428         3.128364
 O         2.227381        -0.236766         2.849717
 C         2.359456         0.022307         1.407026
 H        -0.845754        -0.173867         1.231625
 H        -0.489000         0.977220        -0.047961
 H        -0.746513        -0.845035        -0.377936
 H         4.100940        -1.314408         0.143076
 H         1.698600        -2.558372        -0.307506
 H         0.697647        -2.933371         2.204362
 H         2.706108        -3.380149         1.783315
 H         2.230983        -1.996645         4.138445
 H         3.711696        -1.830501         3.004698
 H         2.542080         1.098954         1.415162
