19
Iteration:  4675
 C        -0.139379        -0.035465         0.440254
 C         1.260287        -0.540674         0.428359
 O         2.227069        -0.332195        -0.810763
 C         3.140344        -0.874035         0.391849
 C         2.016207        -1.958304         0.630697
 C         1.974082        -2.676785         1.989154
 C         2.507982        -1.666460         3.085941
 O         2.078688        -0.255226         2.807802
 C         2.326805         0.115418         1.493025
 H        -0.380150         0.124035         1.461054
 H        -0.175721         0.965254         0.037771
 H        -0.875550        -0.703783         0.101980
 H         4.212515        -0.911364         0.197888
 H         1.903093        -2.686505        -0.154214
 H         0.844205        -2.858067         2.334697
 H         2.312008        -3.708152         2.118415
 H         2.088122        -1.731993         4.120705
 H         3.652621        -1.874683         3.226645
 H         2.419510         1.204847         1.265084
