19
Iteration:   562
 C        -0.155547        -0.247328         0.257413
 C         1.288160        -0.428041         0.431668
 O         2.261015        -0.243731        -0.663208
 C         3.015620        -1.019898         0.362569
 C         1.803099        -1.870189         0.659762
 C         1.791458        -2.517825         2.090114
 C         2.587094        -1.685527         3.006390
 O         2.314387        -0.235560         2.879377
 C         2.408693         0.069715         1.476255
 H        -0.806681        -0.864901         0.879356
 H        -0.403522         0.822177         0.426125
 H        -0.350601        -0.524028        -0.816088
 H         4.082224        -1.286700         0.143791
 H         1.498834        -2.535574        -0.177538
 H         0.762667        -2.556055         2.404600
 H         2.246584        -3.595772         2.009714
 H         2.381760        -1.927201         4.079293
 H         3.738410        -1.829170         2.864859
 H         2.714641         1.148591         1.504177
