19
Iteration:  2890
 C        -0.086824        -0.174442         0.345678
 C         1.287818        -0.519045         0.508828
 O         2.272103        -0.222738        -0.635276
 C         3.052190        -0.840130         0.451429
 C         1.934759        -1.925747         0.615562
 C         1.909309        -2.616117         1.934510
 C         2.516584        -1.696082         3.057308
 O         2.159084        -0.290488         2.775423
 C         2.319343         0.064480         1.490011
 H        -0.664470         0.002917         1.294984
 H        -0.335140         0.776298        -0.118305
 H        -0.585169        -0.740410        -0.471440
 H         4.145479        -0.999458         0.233696
 H         1.656174        -2.531085        -0.342995
 H         0.861218        -2.954623         2.067057
 H         2.486779        -3.569747         1.850516
 H         2.245170        -1.921163         4.107878
 H         3.569423        -1.759360         3.001446
 H         2.455123         1.181893         1.482321
