19
Iteration:   964charge 0 multiplicity 1
 C        -0.194867        -0.225903         0.177023
 C         1.311523        -0.416303         0.477589
 O         2.219386        -0.225179        -0.612897
 C         3.022394        -0.954606         0.434461
 C         1.837061        -1.883124         0.636181
 C         1.771354        -2.554862         2.035727
 C         2.637126        -1.644955         3.123322
 O         2.303462        -0.301295         2.806180
 C         2.405886         0.056795         1.440524
 H        -0.731243        -0.904470         0.950261
 H        -0.615688         0.774024         0.362770
 H        -0.351786        -0.603115        -0.864943
 H         4.117997        -1.172315         0.176535
 H         1.589124        -2.485880        -0.227654
 H         0.713802        -2.565775         2.341613
 H         2.072503        -3.657432         1.870908
 H         2.545792        -1.783806         4.232141
 H         3.805365        -1.901401         2.927161
 H         2.934200         0.993287         1.428311
