19
Iteration:  2667charge 0 multiplicity 1
 C        -0.177786        -0.243510         0.182032
 C         1.285207        -0.427771         0.468532
 O         2.195519        -0.195960        -0.613530
 C         3.122467        -0.860710         0.401679
 C         1.933288        -1.891992         0.692829
 C         1.755930        -2.568209         1.962132
 C         2.533538        -1.738678         3.019541
 O         2.255344        -0.349482         2.878451
 C         2.459119         0.094647         1.519796
 H        -0.855435        -0.284915         1.051413
 H        -0.438391         0.596408        -0.492009
 H        -0.585799        -1.213771        -0.268112
 H         4.196270        -1.017302         0.258406
 H         1.932999        -2.424486        -0.268163
 H         0.615287        -2.478959         2.313570
 H         2.064330        -3.563199         2.004674
 H         2.441998        -2.010050         4.112130
 H         3.594038        -1.598304         2.737244
 H         2.812155         1.146848         1.543696
