19
Iteration:  3011charge 0 multiplicity 1
 C        -0.231230        -0.241154         0.154948
 C         1.237746        -0.571501         0.471841
 O         2.230447        -0.144919        -0.653107
 C         3.084863        -0.751425         0.456562
 C         2.001300        -1.964813         0.629748
 C         1.718850        -2.570016         2.043259
 C         2.573873        -1.723120         2.995378
 O         2.378029        -0.307444         2.886770
 C         2.355065         0.080890         1.556824
 H        -1.052928        -0.476325         0.946096
 H        -0.415761         0.834830        -0.066878
 H        -0.504469        -0.819114        -0.755295
 H         4.189524        -0.846533         0.290829
 H         1.963576        -2.789293        -0.155396
 H         0.626839        -2.438036         2.188519
 H         2.022851        -3.535259         2.237747
 H         2.354527        -2.004474         4.000199
 H         3.714108        -2.115376         2.682977
 H         2.418514         1.114556         1.381188
