19
Iteration:  2252
 C        -0.147423        -0.029704         0.252223
 C         1.222920        -0.466046         0.485938
 O         2.242465        -0.300977        -0.608060
 C         3.067197        -0.911109         0.493415
 C         1.928818        -1.966483         0.607738
 C         1.909062        -2.636648         1.960581
 C         2.510441        -1.663959         3.021572
 O         2.243276        -0.307473         2.818462
 C         2.339259         0.082076         1.470841
 H        -0.617020        -0.375064         1.233917
 H        -0.240913         1.065598        -0.062792
 H        -0.470123        -0.778015        -0.515594
 H         4.097288        -0.921703         0.229361
 H         1.706073        -2.539173        -0.313102
 H         0.897004        -2.752966         2.338333
 H         2.528488        -3.481038         2.084653
 H         2.185103        -1.992927         4.015336
 H         3.606430        -1.728815         2.930141
 H         2.502540         1.128042         1.372604
