19
Iteration:   221
 C        -0.155868        -0.107279         0.247334
 C         1.262966        -0.469433         0.508112
 O         2.262274        -0.232424        -0.634333
 C         3.012382        -0.970914         0.444170
 C         1.859574        -1.940004         0.730300
 C         1.830389        -2.608662         2.009952
 C         2.519057        -1.669249         2.982419
 O         2.315320        -0.250358         2.812476
 C         2.386502         0.072228         1.422521
 H        -0.607013         0.382984         1.155797
 H        -0.214113         0.553243        -0.617778
 H        -0.635469        -1.037132         0.098032
 H         4.081525        -1.296926         0.290696
 H         1.587187        -2.553903        -0.139787
 H         0.845431        -2.930468         2.268848
 H         2.437860        -3.599738         1.957289
 H         2.193054        -1.921760         3.976657
 H         3.672882        -1.855292         2.905991
 H         2.749111         1.096923         1.303590
