19
Iteration:  2790charge 0 multiplicity 1
 C        -0.169834        -0.275073         0.297538
 C         1.210064        -0.484609         0.406787
 O         2.381257        -0.182475        -0.597602
 C         3.031304        -0.900955         0.457798
 C         1.889299        -1.907823         0.606322
 C         1.821884        -2.534312         1.948273
 C         2.536403        -1.675789         2.961626
 O         2.292859        -0.285166         2.877771
 C         2.309446         0.064340         1.504141
 H        -0.746716        -0.739642         1.123602
 H        -0.498244         0.776880         0.341328
 H        -0.709123        -0.607054        -0.677527
 H         4.050755        -1.066108         0.349582
 H         1.788371        -2.668322        -0.229466
 H         0.736671        -2.834514         2.253278
 H         2.371477        -3.496005         1.933756
 H         2.294938        -1.679829         4.029279
 H         3.705296        -2.005454         2.979689
 H         2.614861         1.166787         1.410551
