19
Iteration:  4451charge 0 multiplicity 1
 C        -0.171427        -0.301907         0.404911
 C         1.303190        -0.536764         0.382249
 O         2.178742        -0.219985        -0.646584
 C         3.150077        -0.861577         0.364937
 C         1.964425        -1.947027         0.573480
 C         1.786266        -2.519836         2.068920
 C         2.384604        -1.585155         3.133243
 O         2.377806        -0.270744         2.781517
 C         2.399914         0.079367         1.421241
 H        -0.540418        -0.101730         1.398600
 H        -0.494519         0.499633        -0.237874
 H        -0.743852        -1.128906        -0.008139
 H         4.234735        -1.199895         0.105353
 H         1.981751        -2.661814        -0.270465
 H         0.696890        -2.632058         2.164736
 H         2.354310        -3.556818         2.041867
 H         1.697291        -1.602872         3.968778
 H         3.323725        -1.991435         3.394421
 H         2.718596         1.096703         1.278221
