19
Iteration:   899
 C        -0.060472        -0.118170         0.327168
 C         1.265076        -0.643150         0.447023
 O         2.213867        -0.219909        -0.694882
 C         3.061690        -0.802677         0.403478
 C         2.024947        -1.972076         0.643805
 C         1.760171        -2.534818         2.062732
 C         2.499191        -1.679125         3.097743
 O         2.348340        -0.332050         2.799008
 C         2.223289         0.077970         1.425665
 H        -0.434406        -0.073734         1.347512
 H         0.112412         0.791555        -0.188601
 H        -0.839468        -0.653859        -0.190584
 H         4.098848        -0.758796         0.004915
 H         1.734572        -2.695731        -0.078909
 H         0.647189        -2.671099         2.135088
 H         2.120750        -3.613157         2.150448
 H         2.257043        -1.849230         4.155992
 H         3.610060        -1.932323         3.014866
 H         2.345928         1.138959         1.275099
