19
Iteration:   833charge 0 multiplicity 1
 C        -0.210661        -0.114941         0.321524
 C         1.274496        -0.461122         0.429185
 O         2.288928        -0.197136        -0.676185
 C         3.051301        -0.945253         0.354990
 C         1.910371        -2.040520         0.691389
 C         1.867816        -2.623783         2.074079
 C         2.527413        -1.643234         3.076046
 O         2.222422        -0.255036         2.809714
 C         2.424266         0.049700         1.403701
 H        -0.698893        -0.319372         1.238651
 H        -0.222257         0.908735         0.063219
 H        -0.854212        -0.542301        -0.409186
 H         4.158619        -0.972968         0.206815
 H         1.495194        -2.553797        -0.131522
 H         0.868070        -3.047566         2.301416
 H         2.464199        -3.552126         2.154976
 H         2.221566        -1.821897         4.090572
 H         3.551133        -1.838409         2.984866
 H         2.629458         1.114635         1.334931
