19
Iteration:   939charge 0 multiplicity 1
 C        -0.214920        -0.268258         0.219025
 C         1.297248        -0.491095         0.488757
 O         2.313652        -0.162224        -0.640822
 C         3.048237        -0.917569         0.378850
 C         1.810332        -1.936295         0.695731
 C         1.760626        -2.520662         2.073387
 C         2.522880        -1.688801         3.005475
 O         2.389430        -0.289335         2.836038
 C         2.360264         0.110578         1.437653
 H        -0.846040        -0.570072         1.144673
 H        -0.540695         0.814485         0.162921
 H        -0.374125        -0.891103        -0.693515
 H         4.125887        -1.266789         0.227200
 H         1.548279        -2.658159        -0.126186
 H         0.763392        -2.634882         2.393661
 H         2.335266        -3.501268         1.990378
 H         2.357042        -1.886820         4.046115
 H         3.591405        -1.999761         2.848918
 H         2.711172         1.160598         1.481459
