19
Iteration:  3580charge 0 multiplicity 1
 C        -0.155836        -0.095128         0.221736
 C         1.256997        -0.541946         0.483953
 O         2.268515        -0.287089        -0.569815
 C         3.025303        -0.937179         0.515443
 C         1.969251        -1.971801         0.572751
 C         1.879002        -2.609487         1.989490
 C         2.604298        -1.616767         2.961572
 O         2.216335        -0.220868         2.843513
 C         2.260876         0.063318         1.516073
 H        -0.792472        -0.178534         1.123619
 H        -0.068527         0.963906        -0.225716
 H        -0.567668        -0.847786        -0.562428
 H         4.107813        -0.963536         0.205263
 H         1.809807        -2.668824        -0.302705
 H         0.702714        -2.689196         2.354161
 H         2.325259        -3.684292         2.004245
 H         2.612663        -2.006576         3.935052
 H         3.696160        -1.668704         2.652755
 H         2.268651         1.167911         1.496781
