19
Iteration:  3274charge 0 multiplicity 1
 C        -0.217623        -0.074144         0.446228
 C         1.255633        -0.531135         0.407993
 O         2.349405        -0.242670        -0.684765
 C         3.060412        -0.916610         0.394519
 C         1.922829        -1.900653         0.585079
 C         2.033987        -2.546466         1.955908
 C         2.473937        -1.632420         3.094111
 O         2.135176        -0.330054         2.850584
 C         2.288669        -0.009759         1.412876
 H        -0.734808        -0.352192         1.382639
 H        -0.198125         0.974995         0.186019
 H        -0.690707        -0.727028        -0.226315
 H         4.142811        -1.096173         0.543717
 H         1.763861        -2.619657        -0.272590
 H         1.028107        -2.936845         2.093982
 H         2.820917        -3.278092         1.708414
 H         2.122494        -2.022778         4.009773
 H         3.510934        -1.681471         3.234367
 H         2.595884         1.026207         1.308033
