19
Iteration:  1529charge 0 multiplicity 1
 C        -0.140249         0.052409         0.309877
 C         1.235279        -0.624727         0.380318
 O         2.273023        -0.315579        -0.675994
 C         3.002588        -0.806351         0.364896
 C         2.024550        -2.021000         0.606671
 C         1.837283        -2.581179         2.084258
 C         2.614247        -1.649598         3.087472
 O         2.219855        -0.297408         2.860956
 C         2.216803         0.025107         1.472597
 H        -0.675821        -0.159908         1.244640
 H         0.159917         1.061292        -0.030454
 H        -0.648246        -0.604482        -0.450016
 H         4.126479        -0.933118         0.128297
 H         2.047240        -2.827764        -0.215743
 H         0.840938        -2.757965         2.463488
 H         2.387221        -3.498568         2.186445
 H         2.480869        -1.762133         4.128944
 H         3.606953        -1.765579         2.881636
 H         2.229933         1.104654         1.215219
