19
Iteration:  1635
 C        -0.167953        -0.236985         0.333417
 C         1.306542        -0.597418         0.501321
 O         2.273308        -0.225010        -0.679530
 C         3.114767        -0.747312         0.380946
 C         2.009737        -1.904823         0.620651
 C         1.617808        -2.573040         2.029673
 C         2.473771        -1.698010         3.076993
 O         2.397253        -0.274968         2.791506
 C         2.304359         0.063234         1.419777
 H        -0.648641        -0.485139         1.230252
 H        -0.424649         0.806374         0.133565
 H        -0.631701        -0.707136        -0.507057
 H         4.168296        -0.864923         0.290719
 H         2.073154        -2.643232        -0.094781
 H         0.618921        -2.595963         2.497541
 H         2.032490        -3.626262         2.187958
 H         2.269463        -1.907754         4.132509
 H         3.509921        -2.004611         2.874070
 H         2.334422         1.151929         1.290715
