19
Iteration:   491charge 0 multiplicity 1
 C        -0.163804        -0.034479         0.426455
 C         1.277142        -0.630544         0.516968
 O         2.201858        -0.317419        -0.740979
 C         3.090186        -0.824976         0.367727
 C         2.076448        -1.958455         0.657281
 C         1.872510        -2.605520         2.030331
 C         2.413571        -1.679047         3.079205
 O         2.244738        -0.277941         2.775450
 C         2.345968         0.029951         1.416590
 H        -0.682750         0.348965         1.395119
 H         0.220975         0.943207        -0.067554
 H        -0.849680        -0.476134        -0.339365
 H         4.082271        -1.026969        -0.032286
 H         1.960860        -2.587261        -0.218461
 H         0.763317        -2.411461         2.238854
 H         2.055943        -3.591342         2.207248
 H         1.989217        -1.759395         4.103001
 H         3.660149        -1.758275         3.254113
 H         2.641812         1.059850         1.154775
