19
Iteration:  1925charge 0 multiplicity 1
 C        -0.218788        -0.071020         0.274847
 C         1.182434        -0.687429         0.445828
 O         2.310289        -0.203160        -0.650796
 C         3.067390        -0.835424         0.408468
 C         2.024995        -1.965562         0.635729
 C         1.784582        -2.536998         2.096770
 C         2.576977        -1.732773         3.028793
 O         2.309116        -0.309425         2.821570
 C         2.233498         0.073616         1.423963
 H        -0.694309        -0.038906         1.248646
 H         0.195378         0.905172         0.041839
 H        -0.804040        -0.419377        -0.512611
 H         4.130119        -1.028468         0.337558
 H         2.078057        -2.683754        -0.238851
 H         0.676729        -2.464054         2.201134
 H         2.168828        -3.642796         2.122680
 H         2.353853        -1.864855         4.144703
 H         3.748153        -1.868266         2.897295
 H         2.355589         1.158407         1.436273
