19
Iteration:  4476
 C        -0.105047        -0.157344         0.451736
 C         1.243866        -0.628879         0.498814
 O         2.231930        -0.243025        -0.689236
 C         3.113623        -0.834566         0.261802
 C         2.021787        -1.964469         0.622494
 C         1.883911        -2.619670         2.057562
 C         2.365637        -1.598030         3.123640
 O         2.258857        -0.188597         2.811282
 C         2.333488         0.005165         1.344438
 H        -0.449128         0.134584         1.446284
 H        -0.192779         0.609533        -0.273430
 H        -0.855393        -0.905133         0.156306
 H         4.244480        -0.979188         0.197424
 H         1.998424        -2.624489        -0.250675
 H         0.752474        -2.803473         2.068114
 H         2.408497        -3.579195         2.085199
 H         1.787692        -1.789063         4.018588
 H         3.405810        -1.870629         3.274778
 H         2.693046         1.077885         1.180372
