19
Iteration:  1081charge 0 multiplicity 1
 C        -0.263976        -0.151228         0.385423
 C         1.278082        -0.534111         0.523927
 O         2.334121        -0.222023        -0.684780
 C         3.164326        -0.852398         0.381477
 C         1.948876        -1.956704         0.609927
 C         1.768285        -2.573625         2.049986
 C         2.433499        -1.669032         3.052184
 O         2.329893        -0.288418         2.773298
 C         2.325533         0.056911         1.391602
 H        -0.695312         0.042408         1.400625
 H        -0.571053         0.679467        -0.221536
 H        -0.562295        -1.090222        -0.035924
 H         4.269376        -0.859784         0.191560
 H         1.825319        -2.645551        -0.266385
 H         0.682245        -2.711274         2.354185
 H         2.282066        -3.557740         2.184256
 H         2.017944        -1.908140         3.991816
 H         3.658033        -1.928062         3.262078
 H         2.551809         1.099465         1.168866
