19
Iteration:   453charge 0 multiplicity 1
 C        -0.175507        -0.257056         0.335277
 C         1.287708        -0.489482         0.477138
 O         2.368982        -0.218376        -0.721329
 C         3.017362        -0.988231         0.436207
 C         1.769623        -1.865264         0.647482
 C         1.788290        -2.566545         1.991733
 C         2.511094        -1.618173         3.010128
 O         2.322600        -0.214560         2.834068
 C         2.417359         0.043419         1.485003
 H        -0.568426         0.089374         1.264982
 H        -0.316920         0.555953        -0.362617
 H        -0.685922        -1.224635         0.192305
 H         4.069850        -1.401162         0.329825
 H         1.352297        -2.486380        -0.185777
 H         0.755416        -2.830719         2.304351
 H         2.503476        -3.477734         1.803028
 H         2.087512        -1.865884         4.015318
 H         3.673568        -1.878773         3.037298
 H         2.610756         1.138861         1.384093
