19
Iteration:  1453charge 0 multiplicity 1
 C        -0.196810        -0.337006         0.312216
 C         1.284366        -0.431382         0.443434
 O         2.294014        -0.187497        -0.589339
 C         3.022281        -0.950074         0.434014
 C         1.883186        -1.886830         0.621858
 C         1.775718        -2.494272         1.966553
 C         2.466879        -1.630595         3.096236
 O         2.341097        -0.263775         2.767651
 C         2.433947         0.002066         1.435622
 H        -0.458677        -0.548701         1.363169
 H        -0.502607         0.689799         0.025411
 H        -0.484406        -1.146994        -0.425771
 H         4.091790        -1.147260         0.129037
 H         1.674805        -2.546045        -0.283950
 H         0.740250        -2.533336         2.263787
 H         2.189945        -3.433378         2.063181
 H         2.131454        -1.666542         4.104333
 H         3.652494        -1.957782         3.144355
 H         2.703807         1.042456         1.228662
