19
Iteration:   753
 C        -0.194596        -0.273890         0.177126
 C         1.220300        -0.476089         0.461739
 O         2.350799        -0.192118        -0.631705
 C         2.943704        -0.952648         0.419482
 C         1.754234        -1.832375         0.688628
 C         1.797115        -2.469666         2.011880
 C         2.605771        -1.667807         3.092695
 O         2.359828        -0.284831         2.814922
 C         2.428750        -0.020611         1.460211
 H        -0.749852        -0.840593         0.958916
 H        -0.557715         0.704324         0.445093
 H        -0.406200        -0.773564        -0.730820
 H         4.014199        -1.207381         0.120778
 H         1.531696        -2.384763        -0.247537
 H         0.823199        -2.442365         2.479308
 H         2.384612        -3.492388         1.938982
 H         2.287633        -1.958318         4.089640
 H         3.699146        -1.881213         3.030609
 H         2.875300         1.018876         1.427625
