19
Iteration:  3996
 C        -0.230136        -0.029969         0.307809
 C         1.276736        -0.635112         0.444682
 O         2.243000        -0.291205        -0.617166
 C         3.106374        -0.917802         0.371753
 C         1.963755        -2.030650         0.660012
 C         1.983968        -2.517921         2.028161
 C         2.573373        -1.584410         3.060230
 O         2.090160        -0.249824         2.822330
 C         2.318952        -0.037872         1.398361
 H        -0.582251         0.383754         1.228483
 H         0.093844         0.865985        -0.166703
 H        -0.907512        -0.714876        -0.128444
 H         4.166507        -0.939648         0.131492
 H         1.670549        -2.639192        -0.222212
 H         0.907428        -2.536146         2.388487
 H         2.511192        -3.523275         2.232448
 H         2.436325        -1.959054         4.050194
 H         3.779289        -1.512392         2.867801
 H         2.602109         1.057342         1.268273
