19
Iteration:  1436
 C        -0.216716        -0.203252         0.335286
 C         1.290215        -0.590166         0.492068
 O         2.259632        -0.199364        -0.685727
 C         3.143088        -0.818398         0.372045
 C         1.992190        -1.958448         0.648888
 C         1.723199        -2.538100         2.091598
 C         2.476736        -1.693597         3.071710
 O         2.368740        -0.265235         2.770427
 C         2.342594         0.067189         1.381022
 H        -0.811134        -0.731641         1.099719
 H        -0.246717         0.889856         0.158283
 H        -0.641186        -0.744031        -0.503301
 H         4.237278        -0.883817         0.269577
 H         1.792595        -2.658771        -0.146541
 H         0.608469        -2.478668         2.353441
 H         1.996802        -3.682192         2.180659
 H         1.998236        -1.816605         4.097789
 H         3.436717        -2.014460         3.161279
 H         2.500750         1.163649         1.441990
