19
Iteration:  4128charge 0 multiplicity 1
 C        -0.143441        -0.172170         0.293678
 C         1.258795        -0.539554         0.410751
 O         2.289146        -0.333734        -0.657907
 C         3.036498        -0.960725         0.413470
 C         1.870314        -1.936858         0.671140
 C         1.927033        -2.492441         2.077841
 C         2.597802        -1.579609         3.053046
 O         2.232495        -0.262094         2.791345
 C         2.259053         0.052231         1.451517
 H        -0.895641        -0.788957         0.841791
 H        -0.244388         0.854949         0.592529
 H        -0.495057        -0.051982        -0.717691
 H         4.106762        -1.069701         0.388863
 H         1.606653        -2.589255        -0.167592
 H         1.032198        -2.798854         2.595255
 H         2.354170        -3.516075         1.890614
 H         2.273910        -1.714731         4.063561
 H         3.668690        -1.639203         2.768478
 H         2.506310         1.181311         1.335756
