19
Iteration:  1560charge 0 multiplicity 1
 C        -0.133276        -0.129040         0.265150
 C         1.299113        -0.395924         0.487470
 O         2.226641        -0.259343        -0.600350
 C         2.985230        -0.971488         0.480669
 C         1.850391        -1.894689         0.681906
 C         1.916903        -2.645419         2.018887
 C         2.587083        -1.639265         3.072949
 O         2.177229        -0.276322         2.740903
 C         2.397086         0.064613         1.399727
 H        -0.741163        -0.580984         1.020977
 H        -0.462674         0.875778        -0.024820
 H        -0.326181        -0.698542        -0.677076
 H         4.039693        -1.226286         0.255383
 H         1.637628        -2.580458        -0.137296
 H         0.977635        -3.103468         2.424567
 H         2.606055        -3.553609         1.915691
 H         2.359561        -1.718582         4.116676
 H         3.724695        -1.806375         2.857027
 H         2.818146         1.091553         1.306697
