19
Iteration:   240
 C        -0.159854        -0.235710         0.265300
 C         1.311505        -0.418503         0.465445
 O         2.315296        -0.210023        -0.586203
 C         3.081647        -0.975987         0.309478
 C         1.669982        -1.874858         0.573269
 C         1.777927        -2.608318         2.061682
 C         2.577551        -1.632506         3.083051
 O         2.263001        -0.275434         2.829567
 C         2.481062         0.028467         1.477074
 H        -0.677871         0.166478         1.132147
 H        -0.268997         0.525273        -0.501620
 H        -0.639460        -1.171700         0.075209
 H         4.126529        -1.155155         0.270666
 H         1.341096        -2.406492        -0.266791
 H         0.860878        -2.942975         2.599989
 H         2.468490        -3.517508         1.830848
 H         2.450019        -1.581106         4.156342
 H         3.554016        -1.800947         2.929619
 H         2.588827         1.051740         1.242563
