19
Iteration:  3788
 C        -0.133067         0.037223         0.201122
 C         1.199718        -0.510761         0.475885
 O         2.162877        -0.354229        -0.629248
 C         3.033249        -0.847826         0.439796
 C         1.998044        -1.954598         0.749691
 C         2.016652        -2.726259         2.089794
 C         2.616602        -1.658034         2.995210
 O         2.083530        -0.332056         2.773247
 C         2.361979         0.119605         1.418970
 H        -0.650518         0.472376         1.075819
 H         0.033578         0.863661        -0.556819
 H        -0.913415        -0.647393        -0.263467
 H         4.133288        -0.912394         0.430040
 H         1.783131        -2.638278        -0.097717
 H         0.984748        -3.061382         2.336836
 H         2.792775        -3.512945         1.961707
 H         2.458122        -1.716442         4.059078
 H         3.746293        -1.808148         3.053350
 H         2.493106         1.209980         1.436729
