19
Iteration:  3685charge 0 multiplicity 1
 C        -0.230006        -0.322090         0.328701
 C         1.250926        -0.550737         0.382720
 O         2.253295        -0.181027        -0.696267
 C         3.125986        -0.830290         0.398860
 C         2.041101        -1.930036         0.582467
 C         1.742989        -2.447950         2.018461
 C         2.439322        -1.665885         3.156348
 O         2.394361        -0.285030         2.861941
 C         2.374636         0.032907         1.430691
 H        -0.805979        -0.976566         1.038401
 H        -0.508176         0.665798         0.757348
 H        -0.677970        -0.454768        -0.669431
 H         4.171803        -0.957489        -0.038654
 H         1.898822        -2.714998        -0.173399
 H         0.569214        -2.468265         2.248787
 H         1.921474        -3.631836         2.018941
 H         1.875191        -1.783533         4.140251
 H         3.505068        -1.932918         3.187162
 H         2.691959         1.074499         1.442658
