19
Iteration:  3893
 C        -0.276163        -0.373294         0.258212
 C         1.253511        -0.606130         0.435848
 O         2.265835        -0.155099        -0.663865
 C         3.043962        -0.880997         0.361353
 C         1.998400        -1.905679         0.605523
 C         1.729845        -2.435559         2.114378
 C         2.455211        -1.683880         3.114966
 O         2.515558        -0.243932         2.817281
 C         2.352918         0.077674         1.439935
 H        -0.581725        -1.112714         0.970953
 H        -0.606052         0.633876         0.450656
 H        -0.537817        -0.662246        -0.764172
 H         4.153865        -0.877942         0.219105
 H         1.845150        -2.625241        -0.209159
 H         0.676545        -2.327817         2.085560
 H         1.777458        -3.457318         2.341428
 H         1.932502        -1.633929         4.109187
 H         3.526191        -2.164189         3.165711
 H         2.563938         1.101062         1.396448
