19
Iteration:  4671charge 0 multiplicity 1
 C        -0.170841        -0.042032         0.465733
 C         1.259273        -0.538138         0.414254
 O         2.261262        -0.336943        -0.795557
 C         3.117557        -0.873539         0.390905
 C         2.017379        -1.895553         0.680206
 C         1.931840        -2.653025         2.005164
 C         2.516525        -1.655499         3.085057
 O         2.106174        -0.278265         2.761614
 C         2.332978         0.070329         1.488065
 H        -0.488013        -0.027817         1.587891
 H        -0.145539         0.966046         0.044877
 H        -0.865978        -0.818574         0.006404
 H         4.294062        -0.880383         0.086381
 H         2.031979        -2.506013        -0.270824
 H         0.908807        -2.825068         2.110774
 H         2.270775        -3.738735         2.240214
 H         2.046664        -1.732288         4.062914
 H         3.644472        -1.905381         3.262382
 H         2.296919         1.146793         1.235421
