19
Iteration:  1637
 C        -0.156317        -0.233324         0.333964
 C         1.303188        -0.570974         0.490259
 O         2.270274        -0.228496        -0.696252
 C         3.113255        -0.753101         0.382563
 C         2.004830        -1.897583         0.621075
 C         1.638035        -2.572985         2.036887
 C         2.468968        -1.689974         3.072609
 O         2.381720        -0.285768         2.795482
 C         2.309744         0.057736         1.429788
 H        -0.675981        -0.480238         1.234889
 H        -0.505500         0.766420         0.166639
 H        -0.647003        -0.790151        -0.488646
 H         4.236997        -0.925867         0.328456
 H         2.022688        -2.677985        -0.134590
 H         0.629579        -2.542607         2.536275
 H         2.054927        -3.633445         2.200613
 H         2.237123        -1.888715         4.088885
 H         3.588855        -2.073238         2.891797
 H         2.384560         1.188956         1.361447
