19
Iteration:  4349
 C        -0.197240        -0.035376         0.154492
 C         1.257862        -0.494904         0.419236
 O         2.201669        -0.369129        -0.685433
 C         3.046626        -0.929393         0.523798
 C         1.893064        -1.947108         0.768331
 C         1.942184        -2.675565         2.156470
 C         2.627780        -1.601781         2.978076
 O         2.198686        -0.272156         2.852931
 C         2.343670         0.133870         1.382677
 H        -1.020649        -0.530831         0.768779
 H        -0.360494         1.032348         0.520922
 H        -0.363792        -0.204238        -0.946017
 H         4.058375        -1.052233         0.186891
 H         1.736350        -2.477323        -0.175099
 H         1.000126        -3.089180         2.600439
 H         2.775032        -3.536695         1.972978
 H         2.537731        -2.001931         4.028355
 H         3.694631        -1.671866         2.864033
 H         2.495862         1.181183         1.090970
