19
Iteration:  3157charge 0 multiplicity 1
 C        -0.142662        -0.328207         0.271916
 C         1.287748        -0.454572         0.528210
 O         2.216398        -0.165437        -0.675203
 C         3.116561        -0.826649         0.354559
 C         1.966045        -1.905457         0.587599
 C         1.719377        -2.561762         1.982065
 C         2.500990        -1.690124         3.004201
 O         2.310940        -0.295068         2.919872
 C         2.375013         0.078792         1.532219
 H        -0.815709        -0.820312         0.989463
 H        -0.347874         0.734911        -0.016263
 H        -0.276122        -1.079358        -0.562990
 H         4.191227        -1.010979         0.236294
 H         1.672152        -2.510432        -0.291906
 H         0.683569        -2.592982         2.418885
 H         2.257102        -3.506392         1.999657
 H         2.239999        -2.003516         4.103052
 H         3.421654        -1.992132         2.896712
 H         2.594385         1.201964         1.371871
