19
Iteration:  1610charge 0 multiplicity 1
 C        -0.148923        -0.199404         0.267667
 C         1.289591        -0.649857         0.437080
 O         2.145296        -0.227363        -0.606212
 C         3.081918        -0.828546         0.476457
 C         2.037455        -1.981809         0.588156
 C         1.738625        -2.500789         1.988303
 C         2.486329        -1.639551         2.985905
 O         2.445550        -0.259549         2.822534
 C         2.308552         0.048034         1.491642
 H        -0.750755        -0.579503         1.154850
 H        -0.281391         0.903327         0.194149
 H        -0.594067        -0.493213        -0.685570
 H         4.135028        -0.928117         0.381120
 H         1.959943        -2.777702        -0.171569
 H         0.733797        -2.341581         2.336910
 H         1.886746        -3.495080         2.318928
 H         1.965706        -1.850596         3.976292
 H         3.467351        -1.936579         3.055431
 H         2.441785         1.100928         1.338762
