19
Iteration:   401charge 0 multiplicity 1
 C        -0.088363        -0.080710         0.248817
 C         1.274404        -0.634536         0.387244
 O         2.205471        -0.261400        -0.691940
 C         3.026058        -0.771597         0.416017
 C         1.981538        -1.968985         0.661755
 C         1.722811        -2.517159         2.145292
 C         2.620661        -1.785188         3.117698
 O         2.392198        -0.290415         2.881813
 C         2.207757         0.075663         1.332068
 H        -0.519858         0.008349         1.235298
 H         0.108876         0.963840        -0.098050
 H        -0.665747        -0.778379        -0.454659
 H         4.012088        -0.904315         0.048575
 H         1.728632        -2.642503        -0.215364
 H         0.660691        -2.285658         2.390881
 H         1.928713        -3.588622         2.167548
 H         2.292928        -1.977793         4.184022
 H         3.589698        -2.136673         2.975293
 H         2.299883         1.146779         1.207591
