19
Iteration:  3278
 C        -0.190935        -0.089539         0.449617
 C         1.235147        -0.509050         0.432500
 O         2.324446        -0.227509        -0.692399
 C         3.054909        -0.926851         0.418321
 C         1.957400        -1.911007         0.572211
 C         2.024673        -2.553855         1.960184
 C         2.469458        -1.616870         3.091444
 O         2.122012        -0.305847         2.812640
 C         2.304541        -0.020276         1.428471
 H        -0.573514        -0.327404         1.447382
 H        -0.218763         0.993155         0.164612
 H        -0.762008        -0.757546        -0.315812
 H         4.113304        -1.037000         0.520705
 H         1.892406        -2.585997        -0.283913
 H         0.993728        -3.087820         2.116664
 H         2.661272        -3.388719         1.815613
 H         2.051237        -2.139586         4.042744
 H         3.677193        -1.855992         3.227188
 H         2.686611         1.042764         1.288637
