19
Iteration:  1815charge 0 multiplicity 1
 C        -0.103446        -0.231822         0.325857
 C         1.276234        -0.609818         0.498075
 O         2.160287        -0.233066        -0.612143
 C         3.153707        -0.805795         0.395562
 C         2.046054        -1.896219         0.675285
 C         1.726264        -2.520761         1.977467
 C         2.493771        -1.726307         3.082201
 O         2.355370        -0.316580         2.734234
 C         2.312219         0.097798         1.448849
 H        -0.822277        -0.451592         1.075755
 H        -0.171430         0.817361         0.225182
 H        -0.509617        -0.554941        -0.575449
 H         4.200349        -0.898872         0.100054
 H         1.979533        -2.604634        -0.195145
 H         0.615121        -2.318408         2.186085
 H         1.685921        -3.622842         2.136515
 H         1.999363        -1.682609         4.013334
 H         3.519995        -1.916879         3.182772
 H         2.334934         1.128060         1.243012
