19
Iteration:  2982charge 0 multiplicity 1
 C        -0.179569        -0.300290         0.194858
 C         1.286796        -0.486359         0.478651
 O         2.245254        -0.120346        -0.641860
 C         3.055736        -0.855385         0.394726
 C         1.874173        -1.879989         0.632124
 C         1.844701        -2.468658         2.014176
 C         2.577090        -1.730256         3.074608
 O         2.317768        -0.363734         2.824581
 C         2.343461         0.069197         1.546282
 H        -0.769418        -0.750098         0.924517
 H        -0.607767         0.693424         0.061849
 H        -0.238751        -0.708099        -0.786365
 H         4.115512        -1.074193         0.212730
 H         1.680077        -2.728554         0.015106
 H         0.787440        -2.541392         2.304211
 H         2.173800        -3.607763         2.004863
 H         2.104709        -2.024471         4.034938
 H         3.528677        -2.024869         3.115497
 H         2.526149         1.129180         1.351110
