19
Iteration:  4645charge 0 multiplicity 1
 C        -0.130873        -0.251757         0.399076
 C         1.301022        -0.568564         0.452649
 O         2.235102        -0.202361        -0.681862
 C         3.128722        -0.884571         0.418919
 C         1.909121        -1.993229         0.617487
 C         1.795880        -2.553358         2.010695
 C         2.475297        -1.665294         3.038166
 O         2.267292        -0.203279         2.775440
 C         2.381389         0.114318         1.440672
 H        -0.455572        -0.631494         1.393847
 H        -0.225925         0.880506         0.358011
 H        -0.739048        -0.855680        -0.322178
 H         4.171526        -0.814168         0.317149
 H         1.742670        -2.739470        -0.198068
 H         0.711036        -2.820166         2.215432
 H         2.260058        -3.515070         2.140600
 H         2.052497        -1.746411         4.049111
 H         3.465413        -1.969897         3.069809
 H         2.586993         1.125835         1.126455
