19
Iteration:  2900
 C        -0.146838        -0.101683         0.338451
 C         1.306714        -0.472313         0.440270
 O         2.229156        -0.218086        -0.693713
 C         3.102102        -0.864776         0.348253
 C         2.012847        -1.902590         0.621129
 C         1.912607        -2.628527         2.001376
 C         2.499142        -1.707703         3.039357
 O         2.111576        -0.351953         2.894318
 C         2.304731         0.060384         1.453767
 H        -0.557308        -0.370222         1.360569
 H        -0.063670         0.945361         0.068963
 H        -0.650972        -0.920440        -0.254099
 H         4.198420        -0.927400         0.266560
 H         1.990775        -2.654304        -0.248893
 H         0.839578        -2.787858         2.177035
 H         2.456470        -3.496489         2.212502
 H         2.172148        -1.842096         4.081990
 H         3.524677        -1.765923         2.950729
 H         2.667662         1.135472         1.445309
