19
Iteration:  4653
 C        -0.155173        -0.178817         0.447368
 C         1.271075        -0.544358         0.458673
 O         2.271289        -0.285224        -0.675022
 C         3.125620        -0.816604         0.394272
 C         2.011929        -1.975529         0.630237
 C         1.841239        -2.522949         2.015287
 C         2.425629        -1.670510         3.069951
 O         2.222036        -0.306600         2.739182
 C         2.330173         0.119339         1.349311
 H        -0.514698        -0.302247         1.439991
 H        -0.307422         0.885447         0.327547
 H        -0.801627        -0.737218        -0.168903
 H         4.207175        -0.936182         0.359537
 H         1.771143        -2.772311        -0.039082
 H         0.790468        -2.785012         2.459644
 H         2.329878        -3.495131         1.910407
 H         2.124446        -1.810804         4.129728
 H         3.538947        -1.901086         3.064091
 H         2.695229         1.185449         1.283882
