19
Iteration:  4926
 C        -0.231657        -0.229407         0.189985
 C         1.273899        -0.526977         0.467115
 O         2.251740        -0.157770        -0.694658
 C         3.064271        -0.823843         0.459607
 C         1.970647        -1.934051         0.564028
 C         1.754414        -2.556442         2.073573
 C         2.630254        -1.698317         3.025385
 O         2.296993        -0.270028         2.883845
 C         2.364577        -0.009913         1.551658
 H        -0.855744        -0.069190         1.085012
 H        -0.407473         0.667981        -0.515064
 H        -0.651859        -1.125863        -0.316887
 H         4.112748        -0.998047         0.234997
 H         1.766138        -2.582746        -0.248022
 H         0.727462        -2.506221         2.338052
 H         1.968728        -3.662034         2.140925
 H         2.365953        -1.849900         4.151448
 H         3.660646        -1.970322         2.909907
 H         2.554452         1.081958         1.404014
