19
Iteration:  2106
 C        -0.117552        -0.129123         0.236743
 C         1.288347        -0.539870         0.472435
 O         2.220844        -0.238720        -0.675706
 C         3.004379        -0.806507         0.497848
 C         1.929040        -1.968823         0.666777
 C         1.846531        -2.593480         2.050676
 C         2.497377        -1.682762         2.970400
 O         2.336613        -0.323411         2.815214
 C         2.314725         0.068368         1.494023
 H        -0.606768        -0.043329         1.230690
 H        -0.018397         0.917790        -0.072133
 H        -0.660700        -0.837498        -0.417539
 H         4.124082        -0.851267         0.227332
 H         1.675966        -2.558364        -0.176775
 H         0.818757        -2.659820         2.280254
 H         2.332676        -3.531298         1.877304
 H         2.134458        -1.964759         3.939841
 H         3.533467        -2.006753         3.063800
 H         2.526396         1.142813         1.334385
