19
Iteration:  2954
 C        -0.222119        -0.199692         0.312113
 C         1.292413        -0.550051         0.442429
 O         2.267454        -0.213861        -0.588398
 C         3.102774        -0.854315         0.464721
 C         1.925518        -1.921221         0.587353
 C         1.837773        -2.674171         1.902216
 C         2.469716        -1.673918         3.018358
 O         2.279490        -0.200009         2.842417
 C         2.343134         0.110742         1.521605
 H        -0.707224        -0.780226         1.193056
 H        -0.388447         0.901293         0.355555
 H        -0.550349        -0.480711        -0.782295
 H         4.170812        -0.988090         0.260453
 H         1.924557        -2.758676        -0.186534
 H         0.818212        -3.090786         2.112603
 H         2.402301        -3.582663         1.978314
 H         2.310295        -1.878252         4.101758
 H         3.647156        -1.980505         2.861237
 H         2.562019         1.208627         1.244877
