19
Iteration:  1585
 C        -0.219229        -0.229757         0.233343
 C         1.283572        -0.495059         0.443947
 O         2.292306        -0.208046        -0.679840
 C         3.036787        -0.884959         0.301242
 C         1.869385        -1.846813         0.672341
 C         1.853901        -2.577454         2.050569
 C         2.544113        -1.701911         3.152633
 O         2.301284        -0.281350         2.854359
 C         2.391471         0.057781         1.459405
 H        -0.861409        -0.707690         1.065279
 H        -0.524975         0.858178         0.078657
 H        -0.570598        -0.592208        -0.810258
 H         4.166637        -1.159198         0.152514
 H         1.351089        -2.678463         0.031015
 H         0.860535        -2.790227         2.432851
 H         2.293808        -3.558048         2.041060
 H         2.191316        -1.810512         4.162783
 H         3.629822        -1.924583         3.081284
 H         2.784085         1.125247         1.394993
