19
Iteration:  1003charge 0 multiplicity 1
 C        -0.070884        -0.059543         0.299710
 C         1.246827        -0.576835         0.384106
 O         2.163073        -0.269345        -0.633992
 C         3.085076        -0.849662         0.483673
 C         1.946530        -2.044898         0.619213
 C         1.799977        -2.602022         2.057031
 C         2.575554        -1.667719         3.118016
 O         2.353627        -0.278051         2.760338
 C         2.230024         0.085479         1.388078
 H        -0.760286        -0.450154         1.040837
 H        -0.065985         0.986951         0.637123
 H        -0.420132        -0.182308        -0.716161
 H         4.161129        -0.901664         0.631582
 H         1.926175        -2.804162        -0.233121
 H         0.629782        -2.620924         2.162225
 H         2.273665        -3.558782         2.190857
 H         2.275948        -1.766897         4.154592
 H         3.715243        -1.783173         2.870279
 H         2.172478         1.205531         1.223502
