19
Iteration:  2053
 C        -0.075406        -0.078424         0.335230
 C         1.333033        -0.487869         0.492777
 O         2.223307        -0.242795        -0.635137
 C         3.064602        -0.910681         0.413813
 C         1.904817        -1.918880         0.620757
 C         1.879572        -2.589009         2.048693
 C         2.551346        -1.654088         3.096669
 O         2.124646        -0.323647         2.764639
 C         2.350794         0.015955         1.403253
 H        -0.519524        -0.448584         1.323179
 H        -0.132901         1.050644         0.222681
 H        -0.489407        -0.587103        -0.591385
 H         4.099640        -1.072637        -0.025046
 H         1.621832        -2.472243        -0.265400
 H         0.837208        -3.136373         2.288711
 H         2.407701        -3.498723         1.829058
 H         2.252743        -1.848354         4.116108
 H         3.681586        -1.755072         3.047669
 H         2.496283         1.096442         1.234804
