19
Iteration:   468charge 0 multiplicity 1
 C        -0.125044        -0.134020         0.374691
 C         1.308911        -0.461143         0.380758
 O         2.259058        -0.264015        -0.623054
 C         3.068947        -0.915345         0.376964
 C         1.884039        -1.935600         0.615415
 C         1.807517        -2.550659         2.053829
 C         2.452732        -1.673852         3.121189
 O         2.293408        -0.283228         2.777853
 C         2.350394         0.028915         1.389135
 H        -0.403777         0.158717         1.415157
 H        -0.437091         0.699070        -0.316020
 H        -0.632020        -1.059401         0.059559
 H         4.091630        -0.960902         0.138801
 H         1.821528        -2.660425        -0.201147
 H         0.778498        -2.876833         2.373532
 H         2.397029        -3.410438         2.071648
 H         2.194606        -1.803263         4.201700
 H         3.612816        -1.852215         3.010546
 H         2.698879         1.011851         1.207265
