19
Iteration:  1484charge 0 multiplicity 1
 C        -0.177570        -0.231709         0.283812
 C         1.292286        -0.446751         0.527727
 O         2.296326        -0.292028        -0.675097
 C         3.048380        -0.894518         0.344219
 C         1.906987        -1.892499         0.647986
 C         1.804378        -2.582986         1.976841
 C         2.483491        -1.636025         3.063548
 O         2.297497        -0.222741         2.873902
 C         2.382258         0.033618         1.459659
 H        -0.641436        -0.269901         1.266779
 H        -0.295655         0.678952        -0.308998
 H        -0.692278        -1.127505        -0.153080
 H         4.118368        -0.976050         0.114858
 H         1.590865        -2.512286        -0.212085
 H         0.765392        -2.761730         2.201511
 H         2.291851        -3.554151         2.091838
 H         2.309329        -1.834396         4.096657
 H         3.479243        -1.904891         2.831953
 H         2.626740         1.101884         1.430681
