19
Iteration:  4629charge 0 multiplicity 1
 C        -0.150748        -0.344346         0.351012
 C         1.281764        -0.517963         0.458291
 O         2.243549        -0.194603        -0.596700
 C         3.055008        -0.913897         0.372684
 C         1.995102        -1.911941         0.578522
 C         1.740938        -2.548533         1.986096
 C         2.431136        -1.554466         3.054721
 O         2.385274        -0.185655         2.863925
 C         2.360634        -0.006004         1.420308
 H        -0.822778        -0.766218         1.092151
 H        -0.478633         0.653419         0.334742
 H        -0.393685        -0.795137        -0.592929
 H         4.037676        -1.404903        -0.015574
 H         1.784316        -2.524571        -0.292538
 H         0.682129        -2.592709         2.385674
 H         2.106313        -3.636525         1.949943
 H         2.207683        -1.851459         4.086080
 H         3.611080        -1.730726         2.951761
 H         2.577064         1.096696         1.353720
