19
Iteration:  3228
 C        -0.170901        -0.115662         0.172262
 C         1.242800        -0.523469         0.542366
 O         2.122440        -0.204984        -0.619681
 C         3.133827        -0.838463         0.469432
 C         1.995845        -1.959493         0.648854
 C         1.878846        -2.559420         2.026062
 C         2.600574        -1.710570         3.035897
 O         2.213612        -0.337035         2.786739
 C         2.340050         0.059081         1.516969
 H        -0.915341        -0.499763         0.882630
 H        -0.005613         0.942864         0.108836
 H        -0.442146        -0.649960        -0.694326
 H         4.171179        -0.863864         0.012747
 H         1.826464        -2.569357        -0.252596
 H         0.825230        -2.645632         2.182037
 H         2.457537        -3.581596         1.999099
 H         2.347610        -2.062628         3.979169
 H         3.632796        -1.941074         2.983692
 H         2.400018         1.109231         1.375223
