19
Iteration:  1834charge 0 multiplicity 1
 C        -0.164404        -0.122231         0.308864
 C         1.290107        -0.610178         0.472440
 O         2.210253        -0.246625        -0.670797
 C         3.065808        -0.775403         0.366225
 C         2.036923        -1.991289         0.576273
 C         1.777843        -2.585991         2.022448
 C         2.414828        -1.650117         3.082011
 O         2.353883        -0.239706         2.871558
 C         2.342459         0.018916         1.452223
 H        -0.771068        -0.431947         1.170356
 H        -0.101479         0.986025         0.269381
 H        -0.594005        -0.659796        -0.607780
 H         4.189547        -0.779575         0.158886
 H         1.906382        -2.724449        -0.212626
 H         0.701732        -2.703490         2.279159
 H         2.271261        -3.626098         2.239638
 H         2.111822        -1.968512         4.042824
 H         3.540780        -2.044568         2.960684
 H         2.490412         1.120522         1.306303
