19
Iteration:  2894
 C        -0.100373        -0.153739         0.347497
 C         1.283839        -0.494718         0.480905
 O         2.253814        -0.221874        -0.662491
 C         3.075343        -0.852096         0.401798
 C         1.954243        -1.924744         0.615992
 C         1.909856        -2.612887         1.953495
 C         2.500485        -1.715372         3.055430
 O         2.138557        -0.313019         2.824892
 C         2.308207         0.070538         1.476503
 H        -0.616032        -0.126892         1.302763
 H        -0.222543         0.889777        -0.049612
 H        -0.560745        -0.807998        -0.358439
 H         4.182054        -0.972156         0.287279
 H         1.817687        -2.535117        -0.261965
 H         0.831803        -2.863112         2.033484
 H         2.565488        -3.615367         2.074059
 H         2.208785        -1.791712         4.117159
 H         3.708168        -1.730908         2.938976
 H         2.554864         1.095905         1.522662
