19
Iteration:  1269
 C        -0.147774        -0.314668         0.298486
 C         1.323284        -0.391382         0.452728
 O         2.240652        -0.190730        -0.656556
 C         3.073489        -0.954083         0.368006
 C         1.872373        -1.889249         0.702754
 C         1.784269        -2.615656         2.043140
 C         2.426879        -1.683329         3.039730
 O         2.295124        -0.257309         2.798021
 C         2.502180         0.134822         1.452465
 H        -0.713243        -0.284777         1.228623
 H        -0.598018         0.534175        -0.185739
 H        -0.637903        -1.145566        -0.210807
 H         4.191321        -1.159586         0.312479
 H         1.460031        -2.439319        -0.195977
 H         0.649144        -2.766916         2.289865
 H         2.327068        -3.629705         2.090330
 H         2.192936        -1.792626         4.066881
 H         3.657431        -1.935594         3.017018
 H         2.819119         1.147430         1.219895
