19
Iteration:  4847charge 0 multiplicity 1
 C        -0.064112        -0.085673         0.385012
 C         1.296292        -0.574692         0.503657
 O         2.177151        -0.268065        -0.683417
 C         3.072772        -0.894646         0.356334
 C         2.009298        -1.990089         0.549713
 C         1.946118        -2.612224         2.012178
 C         2.452164        -1.598715         3.133569
 O         2.200829        -0.267644         2.830322
 C         2.281748         0.051342         1.428510
 H        -0.848208        -0.759863         0.841546
 H        -0.122307         0.926437         0.898977
 H        -0.264246         0.141469        -0.683101
 H         4.187729        -0.973745         0.108108
 H         1.838872        -2.598778        -0.339251
 H         0.894818        -2.791637         2.092736
 H         2.459935        -3.588529         1.984954
 H         1.935246        -1.814793         4.060271
 H         3.486458        -1.847416         3.221381
 H         2.382781         1.120564         1.221631
