19
Iteration:   506
 C        -0.028166         0.023690         0.403028
 C         1.265291        -0.625598         0.477207
 O         2.157313        -0.377751        -0.672636
 C         3.083132        -0.846661         0.347436
 C         2.037013        -1.996917         0.621341
 C         1.822059        -2.537897         2.023582
 C         2.469741        -1.649676         3.102522
 O         2.255669        -0.251448         2.799204
 C         2.310948         0.033607         1.382750
 H        -0.547230        -0.161622         1.378088
 H         0.021028         1.112776         0.150528
 H        -0.700469        -0.375627        -0.399320
 H         4.227329        -0.758295         0.198755
 H         1.898344        -2.732454        -0.201504
 H         0.809189        -2.904804         2.063810
 H         2.392942        -3.553001         2.019468
 H         1.993226        -1.840288         4.050241
 H         3.488126        -1.921404         3.152174
 H         2.221235         1.178301         1.450139
