19
Iteration:   193charge 0 multiplicity 1
 C        -0.125294         0.050150         0.285225
 C         1.230963        -0.626032         0.395893
 O         2.219528        -0.300228        -0.733520
 C         3.058091        -0.747740         0.343792
 C         2.005372        -2.068814         0.701637
 C         1.818522        -2.515701         2.083933
 C         2.555736        -1.732445         3.081859
 O         2.321280        -0.335082         2.848317
 C         2.265515         0.015852         1.464296
 H        -0.460380         0.424580         1.241972
 H         0.143822         0.869738        -0.404143
 H        -0.862060        -0.810870         0.054126
 H         4.148467        -0.668333         0.065685
 H         1.796246        -2.695202        -0.205152
 H         0.716626        -2.418545         2.425132
 H         2.044842        -3.548321         2.247543
 H         2.042836        -1.931754         4.060682
 H         3.567708        -1.913479         3.189687
 H         2.437282         1.134019         1.388376
