19
Iteration:  3101
 C        -0.143275        -0.075059         0.392986
 C         1.267831        -0.595895         0.428776
 O         2.267763        -0.268408        -0.640840
 C         3.081445        -0.815280         0.431471
 C         2.001885        -1.943882         0.611014
 C         1.969723        -2.668060         1.935358
 C         2.413039        -1.695412         3.052270
 O         2.169841        -0.242276         2.811909
 C         2.278145         0.080820         1.445175
 H        -0.327254        -0.235153         1.492191
 H        -0.110062         1.050287         0.370685
 H        -0.793913        -0.440901        -0.433120
 H         4.176890        -0.991145         0.331924
 H         1.883555        -2.683975        -0.233365
 H         0.974414        -3.236147         2.168287
 H         2.718838        -3.399950         1.804931
 H         1.939378        -1.870851         4.096352
 H         3.619993        -1.870751         2.960091
 H         2.418115         1.191268         1.322733
