19
Iteration:  2986
 C        -0.120885        -0.305131         0.183782
 C         1.276331        -0.482395         0.461088
 O         2.225610        -0.113285        -0.610201
 C         3.064127        -0.840449         0.382575
 C         1.873900        -1.865809         0.623895
 C         1.832071        -2.482943         2.058615
 C         2.558212        -1.736458         3.094110
 O         2.331035        -0.384452         2.804984
 C         2.316645         0.072319         1.528325
 H        -0.866907        -0.734749         0.948114
 H        -0.565620         0.709985         0.104720
 H        -0.309768        -0.815390        -0.874464
 H         4.114311        -1.043986         0.205705
 H         1.742014        -2.781439         0.023233
 H         0.719436        -2.403982         2.372320
 H         2.122325        -3.641111         1.849336
 H         2.120256        -1.994495         4.094368
 H         3.797647        -2.028825         3.048281
 H         2.551647         1.184350         1.311573
