19
Iteration:  4021charge 0 multiplicity 1
 C        -0.126606        -0.179010         0.316525
 C         1.328094        -0.519874         0.464626
 O         2.194761        -0.314166        -0.709027
 C         3.055323        -0.811795         0.423387
 C         1.945502        -1.957838         0.693480
 C         1.862277        -2.662907         2.030565
 C         2.480007        -1.664034         3.096515
 O         2.277803        -0.235756         2.785532
 C         2.324205         0.141590         1.369393
 H        -0.561659         0.058138         1.339751
 H        -0.157702         0.749842        -0.255086
 H        -0.544147        -1.124904        -0.090759
 H         4.084261        -1.090613         0.398967
 H         1.697639        -2.410932        -0.282460
 H         0.771569        -2.759956         2.408150
 H         2.478987        -3.589030         2.114681
 H         2.188434        -1.863266         4.172694
 H         3.571220        -1.815848         3.114703
 H         2.416312         1.280220         1.300019
