19
Iteration:  1198
 C        -0.042001        -0.080500         0.289539
 C         1.210588        -0.657775         0.510305
 O         2.209813        -0.266995        -0.691183
 C         3.099587        -0.809906         0.403849
 C         1.931699        -1.947909         0.683172
 C         1.896696        -2.557428         2.107953
 C         2.522701        -1.661132         3.087368
 O         2.263525        -0.316590         2.740385
 C         2.228512         0.014261         1.392910
 H        -1.005959        -0.430064         0.724145
 H         0.069425         0.999024         0.703436
 H        -0.146292         0.006156        -0.829118
 H         4.132638        -0.811165         0.150468
 H         1.648392        -2.538701        -0.220749
 H         0.783920        -2.608503         2.365495
 H         2.269178        -3.553124         2.184998
 H         2.325765        -1.843010         4.232236
 H         3.752622        -1.832895         2.978597
 H         2.353424         1.134612         1.404039
