19
Iteration:  3570
 C        -0.173861        -0.175460         0.196931
 C         1.222674        -0.581228         0.493871
 O         2.291330        -0.264918        -0.621132
 C         3.091470        -0.828019         0.501923
 C         1.898567        -1.901766         0.631410
 C         1.826586        -2.518103         1.966565
 C         2.611889        -1.681742         3.028842
 O         2.253754        -0.281082         2.869068
 C         2.279305         0.023671         1.464692
 H        -0.677938        -0.026270         1.157556
 H        -0.195503         0.860011        -0.267738
 H        -0.732771        -0.977984        -0.391090
 H         4.158706        -1.054948         0.331181
 H         1.844924        -2.530965        -0.300476
 H         0.697348        -2.712913         2.431696
 H         2.405433        -3.543106         1.829023
 H         2.429358        -1.852070         4.053847
 H         3.676952        -1.784180         2.768717
 H         2.523933         1.098402         1.200579
