19
Iteration:  1740charge 0 multiplicity 1
 C        -0.107282        -0.069054         0.211703
 C         1.260087        -0.554628         0.449052
 O         2.195230        -0.250224        -0.670538
 C         3.074405        -0.837387         0.381563
 C         1.971079        -1.906010         0.712899
 C         1.824300        -2.657091         2.079633
 C         2.594298        -1.733507         3.071561
 O         2.228940        -0.294973         2.832211
 C         2.334963         0.069682         1.446060
 H        -0.811435        -0.226792         1.084077
 H        -0.160492         1.028741         0.112063
 H        -0.660758        -0.600270        -0.542440
 H         4.056667        -0.942074         0.027113
 H         1.824202        -2.523439        -0.240515
 H         0.791078        -2.711737         2.397112
 H         2.229996        -3.626152         2.086262
 H         2.353526        -1.912542         4.185368
 H         3.767333        -1.841165         2.972683
 H         2.333368         1.120727         1.287727
