19
Iteration:  3076charge 0 multiplicity 1
 C        -0.162193        -0.103229         0.344958
 C         1.328886        -0.499164         0.524503
 O         2.207486        -0.223504        -0.686357
 C         3.114763        -0.902024         0.349140
 C         1.984934        -1.916733         0.600493
 C         1.996043        -2.596094         1.955694
 C         2.493740        -1.667373         3.119860
 O         2.054046        -0.337012         2.790135
 C         2.376361         0.050654         1.499671
 H        -0.595864        -0.210805         1.401308
 H        -0.337121         0.946117         0.008978
 H        -0.497335        -0.718781        -0.473065
 H         4.207922        -1.111891         0.180002
 H         1.696980        -2.635752        -0.214802
 H         0.908632        -2.834791         2.319851
 H         2.439359        -3.569707         1.860273
 H         2.135131        -1.902855         4.103085
 H         3.567618        -1.662563         3.064026
 H         2.626707         1.065646         1.540119
