19
Iteration:  3505
 C        -0.162406        -0.300249         0.365929
 C         1.292659        -0.602426         0.503167
 O         2.281917        -0.191035        -0.605128
 C         3.082571        -0.840907         0.367757
 C         2.001902        -1.919595         0.507344
 C         1.743459        -2.589736         1.917253
 C         2.358832        -1.616946         3.072056
 O         2.440910        -0.182491         2.838524
 C         2.293186         0.052580         1.488062
 H        -0.565307        -0.099844         1.333098
 H        -0.310140         0.583138        -0.226659
 H        -0.694033        -1.228626         0.098310
 H         4.105928        -1.128867         0.204906
 H         1.932955        -2.645582        -0.333788
 H         0.729152        -2.689203         1.908906
 H         2.385332        -3.509773         2.152498
 H         1.711536        -1.854100         3.888925
 H         3.306069        -2.017009         3.367258
 H         2.452411         1.170735         1.397350
