19
Iteration:  4813charge 0 multiplicity 1
 C        -0.270319        -0.259793         0.318231
 C         1.285698        -0.418627         0.502306
 O         2.309444        -0.239491        -0.686400
 C         3.086500        -0.887789         0.442265
 C         1.972092        -1.873511         0.604638
 C         1.785297        -2.593297         2.020026
 C         2.515811        -1.666930         3.061012
 O         2.333900        -0.305487         2.830761
 C         2.344810         0.096778         1.411643
 H        -0.764227        -1.224468         0.752325
 H        -0.713551         0.631305         0.819543
 H        -0.435984        -0.322593        -0.795614
 H         4.184753        -1.074255         0.140038
 H         1.619625        -2.488523        -0.272875
 H         0.703198        -2.715186         2.053387
 H         2.175082        -3.631815         2.238528
 H         2.216575        -1.644694         4.079558
 H         3.558815        -1.965735         3.146833
 H         2.464229         1.186983         1.391368
