19
Iteration:  4737charge 0 multiplicity 1
 C        -0.225545        -0.132993         0.119737
 C         1.262609        -0.452363         0.426354
 O         2.208045        -0.270866        -0.680761
 C         3.026383        -0.835879         0.449945
 C         1.910159        -1.892940         0.654825
 C         1.881168        -2.557384         2.069940
 C         2.588738        -1.725410         3.085192
 O         2.342507        -0.323464         2.856173
 C         2.303808         0.042318         1.536973
 H        -0.663883        -0.127336         1.186469
 H        -0.425525         0.791437        -0.457321
 H        -0.742311        -0.995976        -0.387271
 H         4.154989        -1.113047         0.283597
 H         1.868448        -2.755743        -0.076179
 H         0.902852        -2.836615         2.286177
 H         2.449490        -3.494623         1.742285
 H         2.424029        -1.835942         4.157535
 H         3.635882        -1.792781         2.941252
 H         2.550602         1.116892         1.588096
