19
Iteration:  1036charge 0 multiplicity 1
 C        -0.202130        -0.105884         0.372441
 C         1.282233        -0.503171         0.493420
 O         2.291964        -0.318977        -0.672240
 C         3.066302        -0.909346         0.274716
 C         1.915304        -1.939707         0.578733
 C         1.881239        -2.564655         2.004937
 C         2.483920        -1.654031         3.147425
 O         2.188128        -0.249717         2.849563
 C         2.450360         0.062837         1.417387
 H        -0.712578        -0.343420         1.316985
 H        -0.234082         0.955883         0.096559
 H        -0.626441        -0.665769        -0.453251
 H         4.136923        -1.042128         0.117640
 H         1.537585        -2.652807        -0.212258
 H         0.787868        -2.886114         2.247624
 H         2.435457        -3.505971         2.074526
 H         2.264793        -1.851136         4.187216
 H         3.687126        -1.925108         3.100861
 H         2.448377         1.172611         1.400745
