19
Iteration:  4109charge 0 multiplicity 1
 C        -0.273166        -0.209409         0.283954
 C         1.284671        -0.493744         0.397837
 O         2.248874        -0.336925        -0.734310
 C         3.067322        -0.832935         0.449035
 C         1.995827        -1.942231         0.724464
 C         1.766137        -2.543435         2.083392
 C         2.586065        -1.694833         3.088556
 O         2.329068        -0.200678         2.817182
 C         2.378672         0.088432         1.387843
 H        -0.858590        -0.983495         0.815646
 H        -0.658750         0.688672         0.743708
 H        -0.691714        -0.390857        -0.708027
 H         4.121865        -1.045186         0.353461
 H         1.947597        -2.548510        -0.172279
 H         0.676922        -2.730554         2.250307
 H         2.052599        -3.597921         2.118634
 H         2.040830        -1.821527         4.068332
 H         3.766569        -1.789485         3.027313
 H         2.628840         1.150558         1.377139
