19
Iteration:  2259charge 0 multiplicity 1
 C        -0.109480        -0.096874         0.269262
 C         1.310778        -0.460216         0.452031
 O         2.231506        -0.279295        -0.650500
 C         3.055981        -0.868026         0.473124
 C         1.825632        -1.927961         0.661572
 C         1.902481        -2.580503         1.985903
 C         2.555678        -1.697143         3.005454
 O         2.205887        -0.296014         2.833239
 C         2.370074         0.059406         1.509546
 H        -0.756440        -0.263661         1.134644
 H        -0.430514         0.830168        -0.200378
 H        -0.482444        -0.744344        -0.518868
 H         4.195701        -1.086120         0.249703
 H         1.621161        -2.486158        -0.230776
 H         0.904237        -2.957780         2.267738
 H         2.595723        -3.642482         2.110100
 H         2.027220        -2.074042         3.896246
 H         3.697529        -1.878263         2.902713
 H         2.626473         1.155635         1.371255
