19
Iteration:  4822
 C        -0.222616        -0.238659         0.322186
 C         1.277589        -0.465559         0.492324
 O         2.237567        -0.246616        -0.661510
 C         3.162051        -0.860174         0.389816
 C         1.952978        -1.898115         0.679079
 C         1.830945        -2.636856         2.068560
 C         2.419969        -1.662681         3.040033
 O         2.302583        -0.283428         2.782431
 C         2.381656         0.124243         1.429356
 H        -0.830656        -1.074183         0.812837
 H        -0.533976         0.678725         0.829978
 H        -0.494018        -0.047083        -0.747455
 H         4.267619        -1.002522         0.209843
 H         1.966319        -2.539040        -0.275422
 H         0.694563        -2.858217         2.320245
 H         2.338683        -3.581164         1.840379
 H         2.026175        -1.898009         4.026824
 H         3.555275        -1.932825         2.848048
 H         2.671319         1.180987         1.330215
