19
Iteration:  1796charge 0 multiplicity 1
 C        -0.182375        -0.286359         0.300355
 C         1.268807        -0.482186         0.406576
 O         2.271214        -0.193207        -0.705219
 C         3.064292        -0.840522         0.403145
 C         1.971136        -1.958500         0.638954
 C         1.687879        -2.469174         2.068192
 C         2.508153        -1.718654         3.058114
 O         2.363349        -0.308261         2.874851
 C         2.396433         0.066849         1.441772
 H        -0.586194        -0.728452         1.251960
 H        -0.591214         0.752318         0.211371
 H        -0.600222        -0.776949        -0.573311
 H         4.109491        -0.871034         0.251268
 H         1.796937        -2.533760        -0.288844
 H         0.630190        -2.622750         2.180170
 H         2.085346        -3.435431         2.130410
 H         2.183154        -1.872646         4.151487
 H         3.567187        -1.972932         2.917640
 H         2.619526         1.139372         1.432367
