19
Iteration:  1312
 C        -0.097693        -0.125743         0.228651
 C         1.273740        -0.636898         0.400625
 O         2.197151        -0.203528        -0.654358
 C         2.993968        -0.791326         0.490248
 C         2.028063        -1.987506         0.612688
 C         1.719051        -2.591472         2.091380
 C         2.554386        -1.670531         3.106089
 O         2.414765        -0.267952         2.791980
 C         2.205370         0.027604         1.422880
 H        -0.289099         0.114798         1.305634
 H        -0.020354         0.835973        -0.251319
 H        -0.816921        -0.834823        -0.162353
 H         4.090288        -0.944619         0.226515
 H         2.114625        -2.782209        -0.200270
 H         0.601110        -2.445928         2.163529
 H         2.079355        -3.630455         2.152136
 H         2.293862        -1.800320         4.106442
 H         3.690375        -1.989273         3.070781
 H         2.276576         1.119170         1.339063
