19
Iteration:  3760
 C        -0.164183        -0.103714         0.159678
 C         1.214328        -0.518012         0.408626
 O         2.244418        -0.244425        -0.644829
 C         3.040305        -0.929596         0.347755
 C         1.920420        -1.924659         0.603647
 C         1.923530        -2.568499         2.070389
 C         2.681214        -1.658593         3.120804
 O         2.227082        -0.312475         2.904682
 C         2.282412         0.025578         1.478687
 H        -0.680726         0.330018         1.048994
 H        -0.237933         0.800317        -0.402628
 H        -0.803627        -0.902870        -0.144956
 H         4.108066        -1.103740         0.390456
 H         1.587399        -2.630624        -0.161374
 H         0.861013        -2.764131         2.355457
 H         2.527483        -3.505852         2.011486
 H         2.258037        -1.704036         4.187432
 H         3.749123        -1.849460         2.975566
 H         2.244727         1.156316         1.491525
