19
Iteration:  4599charge 0 multiplicity 1
 C        -0.204028        -0.355238         0.155395
 C         1.238329        -0.497871         0.391797
 O         2.198967        -0.202494        -0.667837
 C         3.065042        -0.776683         0.412241
 C         1.890532        -1.897919         0.699468
 C         1.722427        -2.530745         2.098788
 C         2.572602        -1.669472         3.106216
 O         2.465951        -0.298484         2.841912
 C         2.401256         0.062533         1.460316
 H        -0.768753        -1.111467         0.700706
 H        -0.478031         0.712519         0.322488
 H        -0.396448        -0.622030        -0.888064
 H         4.072615        -1.011546         0.199166
 H         1.697370        -2.568759        -0.150278
 H         0.740859        -2.383987         2.658759
 H         1.841818        -3.587496         2.102979
 H         2.204039        -1.835913         4.148080
 H         3.577293        -1.972896         3.122296
 H         2.577224         1.175657         1.293100
