19
Iteration:   663
 C        -0.146773        -0.122081         0.420457
 C         1.322919        -0.433513         0.495621
 O         2.277444        -0.280525        -0.681611
 C         3.093919        -0.969513         0.434123
 C         1.841835        -1.956890         0.604758
 C         1.870718        -2.566908         2.008825
 C         2.510923        -1.629504         3.022604
 O         2.178375        -0.263222         2.783683
 C         2.405581         0.035527         1.405532
 H        -0.620092         0.038488         1.400607
 H        -0.220760         0.784965        -0.189721
 H        -0.684076        -0.944301        -0.090681
 H         4.073488        -1.141630         0.091316
 H         1.426344        -2.518933        -0.251861
 H         0.894374        -2.949098         2.346847
 H         2.552490        -3.502490         2.030646
 H         2.037415        -1.883988         4.029053
 H         3.689024        -1.737809         3.138640
 H         2.701209         1.059514         1.340609
