19
Iteration:     4
 C        -0.107434        -0.100436         0.275358
 C         1.290954        -0.508091         0.455599
 O         2.231780        -0.279372        -0.652404
 C         3.054821        -0.946540         0.395842
 C         1.884797        -1.925364         0.669740
 C         1.781774        -2.547148         2.057382
 C         2.509993        -1.672134         3.039502
 O         2.322525        -0.250165         2.815128
 C         2.375433         0.042541         1.410319
 H        -0.698186        -0.368339         1.227954
 H        -0.209944         1.009406         0.132158
 H        -0.570531        -0.671364        -0.504364
 H         4.085738        -1.282292         0.238506
 H         1.525219        -2.675676        -0.083461
 H         0.669150        -2.650147         2.453524
 H         2.206838        -3.524592         2.127364
 H         2.236962        -1.831586         4.056370
 H         3.676529        -1.931439         2.938358
 H         2.660620         1.075455         1.347037
