19
Iteration:  4738charge 0 multiplicity 1
 C        -0.230985        -0.139240         0.117694
 C         1.269991        -0.461334         0.429415
 O         2.203395        -0.271112        -0.680790
 C         3.035804        -0.831711         0.451543
 C         1.909577        -1.894654         0.658815
 C         1.873733        -2.546610         2.072302
 C         2.586941        -1.724927         3.082419
 O         2.348333        -0.326241         2.849163
 C         2.301395         0.047394         1.539860
 H        -0.664975        -0.137100         1.157673
 H        -0.404522         0.794374        -0.441322
 H        -0.728866        -0.983197        -0.390784
 H         4.152806        -1.118841         0.297208
 H         1.844034        -2.717289        -0.094051
 H         0.898575        -2.849631         2.272997
 H         2.410139        -3.490990         1.734497
 H         2.436187        -1.881716         4.163241
 H         3.663005        -1.776740         2.950627
 H         2.539813         1.122859         1.618067
