19
Iteration:  1378
 C        -0.187402        -0.122648         0.233866
 C         1.219162        -0.516280         0.446650
 O         2.309245        -0.191995        -0.609738
 C         3.015931        -0.979053         0.355759
 C         1.858489        -1.935172         0.721132
 C         1.886524        -2.631292         2.066148
 C         2.572897        -1.620117         3.073958
 O         2.199495        -0.264084         2.775079
 C         2.404314         0.038442         1.429898
 H        -0.613064        -0.619198         1.101699
 H        -0.375011         0.920994         0.500398
 H        -0.457992        -0.430275        -0.810991
 H         4.113092        -1.264904         0.189227
 H         1.581452        -2.580394        -0.181882
 H         0.912605        -2.903695         2.519240
 H         2.535397        -3.501102         2.013245
 H         2.425948        -1.637316         4.099895
 H         3.554776        -1.731824         2.848008
 H         2.871825         1.029345         1.330997
