19
Iteration:  1962charge 0 multiplicity 1
 C        -0.150791        -0.322085         0.247160
 C         1.275123        -0.477479         0.546646
 O         2.265497        -0.222019        -0.667685
 C         3.020113        -0.920892         0.399850
 C         1.867856        -1.815458         0.642348
 C         1.780572        -2.508167         1.986696
 C         2.518698        -1.694773         3.037778
 O         2.334233        -0.291506         2.856867
 C         2.454053         0.122553         1.477814
 H        -0.897659        -0.529049         1.027736
 H        -0.372226         0.728096        -0.007087
 H        -0.467438        -1.005343        -0.616384
 H         4.042044        -1.208161         0.094056
 H         1.611463        -2.442995        -0.211425
 H         0.604033        -2.608136         2.386649
 H         2.169663        -3.564066         2.014187
 H         2.139084        -2.071695         4.053931
 H         3.573701        -2.117953         2.943235
 H         2.753157         1.227541         1.416850
