19
Iteration:   903
 C        -0.060679        -0.118356         0.325626
 C         1.257407        -0.661712         0.444783
 O         2.191523        -0.223210        -0.694181
 C         3.092582        -0.788573         0.432801
 C         1.997011        -2.017210         0.643170
 C         1.788626        -2.516937         2.037232
 C         2.511438        -1.697112         3.063265
 O         2.356262        -0.312032         2.822729
 C         2.233337         0.103163         1.432073
 H        -0.488444        -0.136890         1.314873
 H         0.095046         0.822309        -0.240395
 H        -0.814639        -0.682892        -0.246811
 H         4.085625        -0.799420         0.055281
 H         1.759401        -2.770994        -0.159084
 H         0.652042        -2.548473         2.281851
 H         1.992136        -3.540662         2.116011
 H         2.137625        -1.829441         4.107321
 H         3.507210        -1.993643         3.048272
 H         2.409758         1.191564         1.302401
