19
Iteration:   360charge 0 multiplicity 1
 C        -0.103091        -0.129281         0.286609
 C         1.279948        -0.447085         0.486417
 O         2.247672        -0.275050        -0.626780
 C         3.035386        -0.995939         0.386031
 C         1.811434        -1.910110         0.679133
 C         1.832500        -2.657753         2.035768
 C         2.546457        -1.687690         3.061057
 O         2.294732        -0.160756         2.787973
 C         2.390282         0.053770         1.425910
 H        -0.849968        -0.733162         0.847410
 H        -0.382260         0.941208         0.397417
 H        -0.390269        -0.480201        -0.691010
 H         4.057386        -1.194482         0.276549
 H         1.536188        -2.553025        -0.128715
 H         0.781253        -2.870292         2.305041
 H         2.355793        -3.573578         1.967659
 H         2.300743        -1.875369         4.110148
 H         3.701188        -1.674548         2.941783
 H         2.630515         1.068236         1.250034
