19
Iteration:    76
 C        -0.039212         0.018668         0.253309
 C         1.264489        -0.710112         0.433555
 O         2.179206        -0.402031        -0.683429
 C         3.043492        -0.722319         0.362691
 C         1.952314        -1.980747         0.632046
 C         1.705035        -2.507194         2.127778
 C         2.474349        -1.661325         3.063867
 O         2.432106        -0.246421         2.843634
 C         2.300742        -0.000639         1.451339
 H        -0.722859        -0.717321         0.550431
 H        -0.094474         0.762477         1.023703
 H        -0.432725         0.289073        -0.729753
 H         4.105190        -0.792538         0.127285
 H         1.875778        -2.665437        -0.177302
 H         0.677860        -2.618112         2.212243
 H         2.154809        -3.555389         2.391275
 H         2.284022        -1.919265         4.166624
 H         3.564468        -1.959452         2.846662
 H         2.327497         1.098785         1.313889
