19
Iteration:  1463charge 0 multiplicity 1
 C        -0.174003        -0.343566         0.329827
 C         1.326923        -0.466514         0.424909
 O         2.294290        -0.175919        -0.651493
 C         3.057100        -1.000519         0.401546
 C         1.819746        -1.884733         0.592807
 C         1.754846        -2.505552         2.006961
 C         2.485381        -1.657912         3.054615
 O         2.323480        -0.193887         2.870412
 C         2.456250         0.113241         1.464278
 H        -0.719851        -0.589837         1.255446
 H        -0.577258         0.558989        -0.167297
 H        -0.616820        -1.217410        -0.262674
 H         4.033252        -1.455702         0.098004
 H         1.650258        -2.623474        -0.246561
 H         0.800233        -2.871717         2.311305
 H         2.302628        -3.392749         1.865072
 H         2.036811        -1.931780         3.976536
 H         3.635419        -1.949226         3.056219
 H         2.794085         1.140046         1.498547
