19
Iteration:   569charge 0 multiplicity 1
 C        -0.125998        -0.224496         0.229585
 C         1.318167        -0.445812         0.423277
 O         2.222524        -0.256544        -0.637597
 C         2.956899        -0.956972         0.382407
 C         1.862622        -1.926836         0.647663
 C         1.703468        -2.526486         2.054678
 C         2.637954        -1.696812         3.065300
 O         2.327534        -0.250437         2.886628
 C         2.412120         0.107418         1.462010
 H        -0.762079        -0.889420         0.913118
 H        -0.382372         0.851817         0.465871
 H        -0.350662        -0.563838        -0.806916
 H         4.065651        -1.183771         0.217506
 H         1.659721        -2.578378        -0.211950
 H         0.642943        -2.610459         2.398273
 H         2.160953        -3.466513         2.043620
 H         2.519182        -1.849126         4.121978
 H         3.740603        -1.938587         2.739592
 H         2.655047         1.172479         1.144957
