19
Iteration:  3002charge 0 multiplicity 1
 C        -0.188412        -0.281142         0.124947
 C         1.269542        -0.543259         0.458549
 O         2.204867        -0.098949        -0.612127
 C         3.053078        -0.779144         0.422872
 C         1.991085        -1.899441         0.662443
 C         1.700275        -2.571778         2.064335
 C         2.616372        -1.751360         3.081908
 O         2.354628        -0.335871         2.834853
 C         2.341942         0.037059         1.476934
 H        -0.705660        -0.606345         1.026056
 H        -0.356391         0.797893        -0.050146
 H        -0.404383        -0.722263        -0.798962
 H         4.131733        -0.807284         0.149006
 H         1.790940        -2.449722        -0.302359
 H         0.672096        -2.539097         2.320495
 H         1.889520        -3.562707         2.280735
 H         2.409530        -1.940954         4.138632
 H         3.731279        -2.047241         2.934263
 H         2.418289         1.095316         1.423326
