19
Iteration:  2596charge 0 multiplicity 1
 C        -0.096010        -0.167417         0.258713
 C         1.307568        -0.484591         0.535467
 O         2.199889        -0.223476        -0.662939
 C         3.071660        -0.858945         0.370504
 C         1.902957        -1.869953         0.697796
 C         1.875916        -2.631109         1.979830
 C         2.531701        -1.673873         3.027783
 O         2.170628        -0.336888         2.882207
 C         2.393472         0.041246         1.465023
 H        -0.876215        -0.559381         0.983793
 H        -0.171645         0.943869         0.072420
 H        -0.262075        -0.635144        -0.715049
 H         4.122112        -0.928566         0.002557
 H         1.638919        -2.458809        -0.207543
 H         0.888112        -2.848128         2.124034
 H         2.381055        -3.626158         1.830157
 H         2.140255        -1.729759         4.046216
 H         3.668484        -1.784096         3.187238
 H         2.624127         1.115634         1.338201
