19
Iteration:   168
 C        -0.118230        -0.069080         0.330613
 C         1.264127        -0.592340         0.421799
 O         2.187653        -0.242146        -0.671893
 C         3.121982        -0.886866         0.426405
 C         1.983802        -1.948036         0.639528
 C         1.722542        -2.580403         2.104315
 C         2.521551        -1.701192         3.108807
 O         2.303164        -0.275737         2.750999
 C         2.326178         0.036780         1.419826
 H        -0.642663        -0.020221         1.343715
 H         0.180131         0.935052        -0.019274
 H        -0.738161        -0.702352        -0.298496
 H         4.163453        -1.018304         0.045273
 H         1.865354        -2.520016        -0.344097
 H         0.682022        -2.658946         2.328536
 H         2.157513        -3.542388         2.102260
 H         2.406494        -1.751376         4.177176
 H         3.640380        -1.887950         2.890191
 H         2.498935         1.131481         1.277237
