19
Iteration:  3628
 C        -0.195038        -0.031736         0.227765
 C         1.249531        -0.464891         0.467631
 O         2.251566        -0.326928        -0.727259
 C         3.039081        -0.899004         0.434112
 C         1.943923        -1.908693         0.670615
 C         2.012538        -2.579131         2.031165
 C         2.599767        -1.659449         3.142369
 O         2.165006        -0.360814         2.815359
 C         2.279727         0.079455         1.416397
 H        -0.700186        -0.788707         0.843912
 H        -0.310166         0.958486         0.638264
 H        -0.504197        -0.065760        -0.818594
 H         4.047668        -1.125689         0.198065
 H         1.674374        -2.600740        -0.099950
 H         0.930989        -2.734776         2.522944
 H         2.561436        -3.645874         1.919507
 H         2.105047        -1.975819         4.100701
 H         3.629119        -1.827849         3.348226
 H         2.675994         1.158990         1.436391
