19
Iteration:  1986charge 0 multiplicity 1
 C        -0.161592        -0.263041         0.243415
 C         1.285470        -0.442343         0.468581
 O         2.236568        -0.144555        -0.604250
 C         3.038147        -0.932646         0.345619
 C         1.888581        -1.933636         0.596598
 C         1.757024        -2.572028         2.027209
 C         2.497913        -1.643768         3.085574
 O         2.338993        -0.275287         2.820101
 C         2.464523         0.053582         1.497944
 H        -0.721529        -0.682713         1.140489
 H        -0.651853         0.730369         0.105727
 H        -0.446726        -1.015187        -0.594939
 H         4.145626        -1.018900         0.134247
 H         1.733402        -2.607224        -0.201003
 H         0.549105        -2.704558         2.303438
 H         2.232057        -3.540284         2.059096
 H         2.167083        -1.854588         4.060055
 H         3.529984        -2.029577         3.080671
 H         2.949402         1.044919         1.464717
