19
Iteration:  1410
 C        -0.100386        -0.064007         0.289868
 C         1.265789        -0.653668         0.397394
 O         2.132041        -0.366252        -0.698356
 C         3.074952        -0.803907         0.415238
 C         2.057866        -1.927529         0.649801
 C         1.786327        -2.521395         2.035861
 C         2.477107        -1.659863         3.066677
 O         2.355252        -0.251620         2.862634
 C         2.276805         0.044014         1.455933
 H        -0.614554        -0.767788         0.941995
 H         0.058628         0.984234         0.544202
 H        -0.642232        -0.253634        -0.705665
 H         4.214285        -0.744440         0.379932
 H         1.941798        -2.689687        -0.212900
 H         0.681865        -2.524310         2.176828
 H         2.125936        -3.514816         2.083696
 H         2.204030        -1.896754         4.050387
 H         3.607076        -1.987020         3.016939
 H         2.495839         1.101951         1.549584
