19
Iteration:  2694charge 0 multiplicity 1
 C        -0.158259        -0.194808         0.270418
 C         1.308753        -0.457201         0.477648
 O         2.284858        -0.152195        -0.609642
 C         3.116018        -0.904223         0.363437
 C         1.863687        -1.899249         0.660299
 C         1.847137        -2.590452         1.973999
 C         2.497952        -1.699240         3.085934
 O         2.264315        -0.319831         2.839363
 C         2.306555         0.017784         1.432732
 H        -0.733222        -0.361104         1.188941
 H        -0.338051         0.782303        -0.144264
 H        -0.478763        -0.931246        -0.424978
 H         4.208312        -0.993673         0.209907
 H         1.624064        -2.494994        -0.228515
 H         0.873671        -2.824862         2.295481
 H         2.454355        -3.586478         1.863532
 H         2.085496        -1.905703         4.055002
 H         3.533635        -1.696538         3.162660
 H         2.535591         1.085562         1.360200
