19
Iteration:  2139
 C        -0.192821        -0.191183         0.244674
 C         1.249343        -0.559769         0.456264
 O         2.245889        -0.208822        -0.642364
 C         3.060520        -0.778597         0.398044
 C         2.029031        -1.951981         0.564562
 C         1.727887        -2.462402         2.062282
 C         2.522041        -1.707286         3.087462
 O         2.366174        -0.346689         2.853742
 C         2.380156        -0.031518         1.488419
 H        -0.779564        -0.323615         1.182295
 H        -0.389519         0.826466        -0.151216
 H        -0.825361        -0.700180        -0.512373
 H         4.155036        -0.703644         0.007420
 H         1.780224        -2.658584        -0.189320
 H         0.687316        -2.302493         2.212950
 H         1.948053        -3.584520         2.040497
 H         2.074739        -1.841815         4.072643
 H         3.598870        -1.912650         2.937490
 H         2.584756         1.067391         1.584983
