19
Iteration:  3517
 C        -0.155889        -0.379917         0.331855
 C         1.295039        -0.594038         0.546502
 O         2.232076        -0.163720        -0.645014
 C         3.101616        -0.816101         0.395026
 C         1.974422        -1.958415         0.604441
 C         1.797447        -2.449421         1.928894
 C         2.304501        -1.669872         3.017828
 O         2.430709        -0.269501         2.857080
 C         2.389145         0.072232         1.518503
 H        -0.600592         0.083949         1.159100
 H        -0.178820         0.354205        -0.456463
 H        -0.803090        -1.084190        -0.212197
 H         4.055231        -0.929365        -0.065781
 H         1.785610        -2.549643        -0.310236
 H         0.815639        -2.660258         2.173080
 H         2.091792        -3.557495         2.015243
 H         1.786888        -1.658321         3.972840
 H         3.350146        -1.922984         3.161811
 H         2.559285         1.193385         1.244430
