19
Iteration:  3995charge 0 multiplicity 1
 C        -0.233395        -0.023607         0.307990
 C         1.277974        -0.638290         0.445448
 O         2.246328        -0.289091        -0.615391
 C         3.098492        -0.916908         0.372318
 C         1.965994        -2.030353         0.646849
 C         1.986459        -2.520702         2.030144
 C         2.579546        -1.583135         3.063680
 O         2.086044        -0.252864         2.825162
 C         2.319296        -0.036139         1.390079
 H        -0.582007         0.377990         1.217022
 H         0.098899         0.877424        -0.158068
 H        -0.897651        -0.721102        -0.126489
 H         4.192114        -0.968244         0.174255
 H         1.633839        -2.664746        -0.215573
 H         0.946627        -2.539905         2.424138
 H         2.470262        -3.525494         2.240414
 H         2.426546        -1.945404         4.060463
 H         3.807686        -1.479766         2.871138
 H         2.577686         1.031626         1.262183
