19
Iteration:  3293charge 0 multiplicity 1
 C        -0.137811        -0.130992         0.422889
 C         1.343081        -0.514244         0.436114
 O         2.221544        -0.187345        -0.632216
 C         3.095583        -0.853641         0.434752
 C         2.015852        -1.989642         0.602335
 C         1.913637        -2.695849         1.973713
 C         2.441816        -1.697251         3.037618
 O         2.117118        -0.268914         2.763948
 C         2.363043         0.086676         1.424201
 H        -0.556134        -0.253866         1.468980
 H        -0.230150         0.942865         0.217394
 H        -0.811311        -0.778332        -0.148020
 H         4.146233        -1.008300         0.038784
 H         1.848139        -2.613594        -0.279735
 H         0.877456        -2.850093         2.205772
 H         2.702055        -3.609496         2.041770
 H         2.005604        -1.705197         4.037806
 H         3.575603        -1.632023         3.186798
 H         2.530064         1.135997         1.323603
