19
Iteration:  1646
 C        -0.174209        -0.252199         0.335240
 C         1.281247        -0.464014         0.410355
 O         2.263458        -0.238914        -0.726060
 C         3.105965        -0.818798         0.423860
 C         1.957765        -1.920372         0.647328
 C         1.757511        -2.518372         2.086709
 C         2.499707        -1.707418         3.027234
 O         2.315000        -0.327194         2.817202
 C         2.362500         0.076355         1.460482
 H        -0.595147        -0.567385         1.256704
 H        -0.442931         0.783475         0.163168
 H        -0.555053        -0.994388        -0.340517
 H         4.161327        -0.971007         0.247235
 H         1.741160        -2.482865        -0.214997
 H         0.649815        -2.430167         2.161522
 H         2.038234        -3.622926         2.093180
 H         2.083907        -1.787656         4.034990
 H         3.544676        -1.975175         3.104367
 H         2.571251         1.154176         1.521776
