19
Iteration:   597charge 0 multiplicity 1
 C        -0.238817        -0.170408         0.253794
 C         1.275851        -0.612258         0.441132
 O         2.246271        -0.280602        -0.600794
 C         3.044196        -0.829105         0.394832
 C         2.002915        -1.924576         0.687032
 C         1.707439        -2.451625         2.086754
 C         2.576853        -1.749072         2.997199
 O         2.456566        -0.312680         2.790221
 C         2.275822         0.101291         1.460293
 H        -1.073647        -0.301160         0.886122
 H         0.017632         0.858962         0.067104
 H        -0.474624        -0.260982        -0.823421
 H         4.059404        -0.940650         0.286510
 H         1.847124        -2.634847        -0.134504
 H         0.662826        -2.357282         2.470457
 H         1.882944        -3.614315         2.352082
 H         2.200062        -1.838176         4.078849
 H         3.672918        -2.116887         2.909985
 H         2.170754         1.111374         1.210298
