19
Iteration:  2940
 C        -0.094684        -0.161505         0.369368
 C         1.275104        -0.558093         0.473264
 O         2.270674        -0.189925        -0.627025
 C         3.067935        -0.836348         0.487471
 C         2.013124        -1.961666         0.609197
 C         1.860677        -2.601090         2.015463
 C         2.462102        -1.672951         2.962898
 O         2.237208        -0.297260         2.793398
 C         2.264372         0.042876         1.405036
 H        -0.719836        -0.558595         1.157402
 H        -0.244226         0.931308         0.537773
 H        -0.629329        -0.477846        -0.583378
 H         4.119285        -0.930371         0.303760
 H         1.823240        -2.445559        -0.302442
 H         0.782198        -2.818658         2.247398
 H         2.521127        -3.593195         1.925920
 H         1.971019        -1.966366         3.963448
 H         3.695747        -1.740759         3.022300
 H         2.305430         1.168776         1.377460
