19
Iteration:  1159
 C        -0.261420        -0.205918         0.174698
 C         1.350908        -0.402079         0.407988
 O         2.244253        -0.206148        -0.670926
 C         2.998749        -1.008141         0.535125
 C         1.781242        -1.896498         0.689229
 C         1.876868        -2.544818         2.011656
 C         2.597013        -1.624552         3.031780
 O         2.307304        -0.267535         2.860253
 C         2.423765         0.000194         1.495347
 H        -0.738798        -0.903685         0.844438
 H        -0.494912         0.819256         0.186826
 H        -0.571543        -0.547065        -0.799577
 H         4.112820        -1.169256         0.364706
 H         1.465235        -2.583042        -0.099621
 H         0.948125        -2.928515         2.438176
 H         2.467377        -3.533301         1.952160
 H         2.340624        -1.952073         3.983144
 H         3.702179        -1.655249         2.891856
 H         2.671498         1.009394         1.247590
