19
Iteration:  4461charge 0 multiplicity 1
 C        -0.180987        -0.254290         0.427765
 C         1.354689        -0.571448         0.449121
 O         2.172319        -0.153100        -0.731075
 C         3.091115        -0.940259         0.434432
 C         2.055285        -1.974918         0.611000
 C         1.846671        -2.484227         2.000224
 C         2.355196        -1.658516         3.156413
 O         2.331992        -0.233576         2.738675
 C         2.399181         0.031445         1.394150
 H        -0.577396         0.059815         1.408754
 H        -0.252099         0.612714        -0.254149
 H        -0.839554        -1.075230         0.132405
 H         4.135139        -0.964646         0.025355
 H         1.741820        -2.771329        -0.064812
 H         0.807651        -2.689277         2.198222
 H         2.264235        -3.572582         2.176719
 H         1.756332        -1.653664         4.079959
 H         3.361786        -1.801166         3.498061
 H         2.419283         1.061236         1.177127
