19
Iteration:    60
 C        -0.151363        -0.042873         0.294861
 C         1.278494        -0.535773         0.366349
 O         2.230342        -0.300824        -0.727566
 C         3.044848        -0.928795         0.456631
 C         1.942351        -1.968022         0.714512
 C         1.745041        -2.595800         2.112586
 C         2.581096        -1.669821         3.115887
 O         2.364788        -0.277521         2.775069
 C         2.297135         0.076761         1.387479
 H        -1.031678        -0.719601         0.586692
 H        -0.199549         0.920110         0.853080
 H        -0.324189         0.272228        -0.766674
 H         4.133055        -1.023141         0.240217
 H         1.902559        -2.772218        -0.082986
 H         0.636203        -2.544575         2.534675
 H         2.057118        -3.628639         2.106223
 H         2.275120        -1.687296         4.161974
 H         3.700657        -1.984056         3.029382
 H         2.413471         1.176581         1.377160
