19
Iteration:  3024
 C        -0.241395        -0.234421         0.186579
 C         1.227705        -0.585799         0.452330
 O         2.272078        -0.268060        -0.559491
 C         3.050502        -0.807962         0.497416
 C         1.990001        -1.908162         0.616142
 C         1.763315        -2.505646         1.921955
 C         2.541862        -1.709685         2.962479
 O         2.399503        -0.278283         2.924139
 C         2.268762         0.083790         1.496679
 H        -0.800314        -0.402251         1.140908
 H        -0.224360         0.840274        -0.108243
 H        -0.562175        -0.730741        -0.694547
 H         4.139160        -0.834375         0.273986
 H         2.007737        -2.521195        -0.336438
 H         0.755795        -2.609003         2.279269
 H         2.048597        -3.487829         1.920505
 H         2.436141        -2.049215         4.012654
 H         3.740580        -1.796471         2.743346
 H         2.438792         1.134673         1.524431
