19
Iteration:  4628
 C        -0.156904        -0.345756         0.342085
 C         1.270728        -0.514394         0.468418
 O         2.245907        -0.196468        -0.592197
 C         3.056688        -0.918261         0.362834
 C         2.000371        -1.910972         0.576956
 C         1.738465        -2.533078         1.982252
 C         2.428456        -1.554914         3.061257
 O         2.390498        -0.191565         2.864554
 C         2.358307         0.001739         1.427450
 H        -0.848880        -0.809383         1.077224
 H        -0.480831         0.665489         0.336109
 H        -0.387621        -0.818530        -0.618028
 H         4.061341        -1.426167        -0.014994
 H         1.784083        -2.551352        -0.293038
 H         0.725854        -2.591997         2.383037
 H         2.088377        -3.638845         1.940592
 H         2.229169        -1.841855         4.096712
 H         3.628602        -1.761871         2.939712
 H         2.601920         1.089419         1.328826
