19
Iteration:  1766
 C        -0.164531        -0.258874         0.254475
 C         1.227942        -0.455821         0.525482
 O         2.341700        -0.188490        -0.560852
 C         2.967500        -0.990897         0.451605
 C         1.858918        -1.915691         0.626782
 C         1.820907        -2.479005         1.974436
 C         2.552721        -1.663348         2.956941
 O         2.307340        -0.241231         2.827553
 C         2.403405         0.036165         1.451030
 H        -0.782136        -0.604589         1.143477
 H        -0.635265         0.769418         0.063124
 H        -0.511273        -1.001846        -0.584140
 H         4.048419        -1.238899         0.283172
 H         1.625946        -2.505591        -0.275782
 H         0.813296        -2.815907         2.282211
 H         2.344646        -3.528240         2.005351
 H         2.201191        -1.938200         4.022776
 H         3.729097        -1.840773         2.913332
 H         2.716056         1.107332         1.180060
