19
Iteration:  3217
 C        -0.180766        -0.175964         0.160911
 C         1.275645        -0.597228         0.483616
 O         2.194753        -0.217168        -0.580833
 C         3.059618        -0.806522         0.341474
 C         2.001423        -1.884743         0.624455
 C         1.819423        -2.562373         2.021493
 C         2.629631        -1.741260         3.032726
 O         2.284020        -0.336296         2.904492
 C         2.272409         0.083923         1.493987
 H        -0.904319        -0.348873         0.962994
 H        -0.296451         0.897548         0.048129
 H        -0.452922        -0.496339        -0.812971
 H         4.166685        -0.932129         0.254962
 H         1.912760        -2.577859        -0.222005
 H         0.813946        -2.537048         2.385995
 H         2.051909        -3.715474         1.990060
 H         2.309913        -1.874286         4.010079
 H         3.685188        -1.686345         2.947867
 H         2.457397         1.121725         1.542526
