19
Iteration:   862charge 0 multiplicity 1
 C        -0.133655        -0.173214         0.372696
 C         1.334139        -0.423400         0.487142
 O         2.258363        -0.319280        -0.641672
 C         2.980106        -1.009162         0.429008
 C         1.896145        -1.907551         0.641317
 C         1.926864        -2.572424         1.924143
 C         2.512813        -1.623396         3.043007
 O         2.183237        -0.258014         2.788916
 C         2.396783         0.076342         1.435976
 H        -0.506409         0.034286         1.461106
 H        -0.269919         0.874777        -0.102043
 H        -0.766989        -0.902786        -0.198837
 H         4.114689        -1.130390         0.308224
 H         1.428122        -2.376430        -0.256856
 H         0.903087        -2.835697         2.113789
 H         2.569300        -3.543085         1.966211
 H         1.991580        -1.903753         3.970273
 H         3.721568        -1.742050         3.206229
 H         2.722402         1.142258         1.358963
