19
Iteration:  2680
 C        -0.149654        -0.293927         0.217135
 C         1.296157        -0.476518         0.545483
 O         2.248963        -0.174858        -0.647821
 C         2.994305        -0.856529         0.417139
 C         1.906560        -1.845676         0.591852
 C         1.817568        -2.552427         2.026834
 C         2.553118        -1.725349         3.027902
 O         2.182289        -0.319970         2.830504
 C         2.516767         0.091921         1.540998
 H        -0.652458        -0.159529         1.106606
 H        -0.218637         0.658891        -0.295319
 H        -0.428988        -1.072084        -0.470294
 H         3.945555        -1.120496         0.084126
 H         1.591431        -2.522731        -0.204599
 H         0.697608        -2.754712         2.205609
 H         2.276033        -3.564284         1.960552
 H         2.207857        -1.943875         4.013665
 H         3.549283        -2.067360         2.983295
 H         2.846307         1.160567         1.475112
