19
Iteration:  3366charge 0 multiplicity 1
 C        -0.176433        -0.373134         0.154755
 C         1.196986        -0.553342         0.533735
 O         2.298535        -0.099996        -0.582354
 C         3.047897        -0.799638         0.436663
 C         1.822464        -1.902907         0.625585
 C         1.723833        -2.574143         1.993838
 C         2.577565        -1.702344         3.009666
 O         2.412413        -0.295025         2.851265
 C         2.374566         0.085155         1.480318
 H        -1.014209        -0.760775         0.714186
 H        -0.224315         0.711076        -0.040649
 H        -0.275445        -1.048476        -0.757763
 H         4.109840        -0.909246         0.204888
 H         1.799386        -2.584397        -0.227028
 H         0.651651        -2.407514         2.323284
 H         2.125738        -3.477329         2.162031
 H         2.464710        -1.792982         4.157190
 H         3.558554        -1.960702         2.943205
 H         2.562784         1.189033         1.592923
