19
Iteration:   738
 C        -0.217253        -0.208978         0.248533
 C         1.289780        -0.393415         0.450509
 O         2.272372        -0.204276        -0.688702
 C         3.065758        -0.993896         0.333223
 C         1.829291        -1.930092         0.590151
 C         1.788888        -2.562797         2.092463
 C         2.570514        -1.682659         3.073281
 O         2.353941        -0.260170         2.919694
 C         2.400705         0.093865         1.494997
 H        -0.764069        -0.783331         1.021107
 H        -0.608962         0.813610         0.010067
 H        -0.546436        -0.717847        -0.743896
 H         4.067347        -1.283633         0.189549
 H         1.550730        -2.743988        -0.113863
 H         0.795050        -2.871046         2.308025
 H         2.214158        -3.501706         2.000422
 H         2.288045        -1.851248         4.150570
 H         3.589194        -1.827153         2.993754
 H         2.600933         1.130415         1.279329
