19
Iteration:  2352charge 0 multiplicity 1
 C        -0.208522        -0.181606         0.304054
 C         1.260548        -0.474987         0.425100
 O         2.230583        -0.226169        -0.643330
 C         3.102474        -0.816194         0.408229
 C         2.000046        -1.865940         0.642353
 C         1.808494        -2.553724         2.031478
 C         2.489575        -1.750607         3.127852
 O         2.249198        -0.359410         2.779976
 C         2.433482         0.069300         1.419866
 H        -0.649055        -0.556333         1.260611
 H        -0.227616         0.946999         0.195545
 H        -0.534276        -0.653773        -0.689100
 H         4.074755        -1.181678         0.295408
 H         1.713151        -2.557453        -0.210197
 H         0.689995        -2.655338         2.351414
 H         2.179014        -3.670489         1.912964
 H         2.163305        -1.802913         4.195885
 H         3.554053        -1.969260         3.062417
 H         2.660927         1.145269         1.314774
