19
Iteration:  1857charge 0 multiplicity 1
 C        -0.208721        -0.140695         0.284143
 C         1.297162        -0.482511         0.422600
 O         2.272749        -0.225900        -0.634251
 C         3.054908        -0.971011         0.459076
 C         1.883408        -1.895412         0.612443
 C         1.919171        -2.568990         1.996931
 C         2.521312        -1.663400         3.124128
 O         2.253032        -0.283557         2.798179
 C         2.348584         0.071965         1.412569
 H        -0.638244        -0.402584         1.256841
 H        -0.280044         0.938317         0.193688
 H        -0.766364        -0.698900        -0.491890
 H         4.118483        -1.270533         0.224530
 H         1.556012        -2.556705        -0.176789
 H         0.924726        -2.970911         2.393970
 H         2.597295        -3.529924         1.832974
 H         2.010204        -1.924041         3.979779
 H         3.654651        -1.975394         3.273071
 H         2.554771         1.136559         1.331038
