19
Iteration:   140
 C        -0.188069        -0.221639         0.343250
 C         1.239013        -0.410261         0.568880
 O         2.400182        -0.298093        -0.705290
 C         3.006409        -1.059176         0.363383
 C         1.779391        -1.857332         0.613132
 C         1.812630        -2.543008         1.972196
 C         2.507104        -1.648915         3.068320
 O         2.306201        -0.193357         2.847252
 C         2.424353         0.072252         1.451474
 H        -0.588931        -0.777698         1.151031
 H        -0.562496         0.810776         0.420463
 H        -0.450116        -0.678053        -0.691241
 H         3.988793        -1.512502         0.188530
 H         1.507969        -2.371507        -0.309308
 H         0.740547        -2.781607         2.347639
 H         2.412272        -3.520425         1.876733
 H         2.272338        -1.832614         4.168004
 H         3.629090        -1.793216         2.935398
 H         2.715427         1.131679         1.259503
