19
Iteration:  2117
 C        -0.086287        -0.128461         0.250840
 C         1.259984        -0.590040         0.493819
 O         2.144768        -0.205806        -0.659466
 C         3.098326        -0.800132         0.418910
 C         2.044040        -1.933605         0.694295
 C         1.713888        -2.597492         2.012825
 C         2.547820        -1.787774         3.057307
 O         2.353732        -0.298197         2.834441
 C         2.291542         0.095637         1.408020
 H        -0.758435        -0.055913         1.120357
 H        -0.031543         0.838974        -0.267724
 H        -0.692327        -0.640358        -0.524051
 H         4.230524        -0.885460         0.167680
 H         1.975063        -2.633890        -0.103069
 H         0.686466        -2.600227         2.207302
 H         2.093708        -3.616938         2.272040
 H         2.088170        -1.904757         4.018996
 H         3.621622        -1.945155         2.954436
 H         2.313885         1.197080         1.508426
