19
Iteration:  3390charge 0 multiplicity 1
 C        -0.149492        -0.197155         0.083766
 C         1.240753        -0.460707         0.420973
 O         2.140418        -0.265186        -0.579259
 C         3.018639        -0.854083         0.437218
 C         1.987617        -1.868867         0.683972
 C         1.795620        -2.534375         2.012851
 C         2.630146        -1.750818         3.039900
 O         2.320751        -0.328495         2.882268
 C         2.333109         0.098025         1.532988
 H        -0.886678        -0.883330         0.583124
 H        -0.474311         0.865274         0.065015
 H        -0.241360        -0.725009        -0.902189
 H         4.122890        -0.975947         0.220473
 H         1.807687        -2.569771        -0.131981
 H         0.739514        -2.449868         2.291792
 H         2.279854        -3.469683         2.032873
 H         2.704669        -1.890117         4.151114
 H         3.626349        -1.919452         2.784268
 H         2.595071         1.122699         1.709332
