19
Iteration:  4906charge 0 multiplicity 1
 C        -0.153868        -0.207551         0.236713
 C         1.296721        -0.474199         0.505546
 O         2.246644        -0.296453        -0.601116
 C         3.061594        -0.886324         0.419893
 C         1.903928        -1.874997         0.707844
 C         1.874725        -2.564774         1.963946
 C         2.516789        -1.687871         2.996857
 O         2.215985        -0.313465         2.877732
 C         2.382027         0.136117         1.403430
 H        -0.775209        -0.313280         1.124571
 H        -0.301229         0.857057         0.003136
 H        -0.548393        -0.817264        -0.584274
 H         4.069633        -1.021528         0.080251
 H         1.728577        -2.528879        -0.158407
 H         0.873246        -2.883781         2.344016
 H         2.345124        -3.558726         1.812666
 H         2.377498        -1.911684         4.125297
 H         3.571238        -1.793328         2.806578
 H         2.605879         1.234068         1.400059
