19
Iteration:   152charge 0 multiplicity 1
 C        -0.198923        -0.122418         0.317723
 C         1.294315        -0.456213         0.526733
 O         2.281599        -0.308064        -0.622122
 C         3.033174        -0.972588         0.426224
 C         1.873797        -1.954108         0.638816
 C         1.829825        -2.524466         1.994119
 C         2.507292        -1.613833         2.958513
 O         2.289087        -0.248558         2.815444
 C         2.455732         0.044057         1.412810
 H        -0.703518        -0.457776         1.197366
 H        -0.467020         0.951876         0.228031
 H        -0.689843        -0.798428        -0.437439
 H         4.093885        -1.131099         0.299805
 H         1.715007        -2.724129        -0.075040
 H         0.704652        -2.627621         2.214356
 H         2.172805        -3.633875         2.102433
 H         2.061194        -1.953122         3.943809
 H         3.660581        -1.828154         3.020408
 H         2.716556         1.095298         1.297227
