19
Iteration:  3943
 C        -0.232284        -0.138123         0.182769
 C         1.265569        -0.510808         0.580317
 O         2.219503        -0.400073        -0.668276
 C         3.040103        -0.871968         0.468609
 C         1.903170        -1.918973         0.709108
 C         1.895267        -2.605853         1.986634
 C         2.634195        -1.630546         3.048949
 O         2.246844        -0.223083         2.803762
 C         2.347776         0.106173         1.445020
 H        -0.978541        -0.466686         0.964392
 H        -0.229322         0.960942         0.023797
 H        -0.348091        -0.701238        -0.770205
 H         4.051268        -1.009736         0.165625
 H         1.909779        -2.397523        -0.273128
 H         0.870233        -2.906785         2.376696
 H         2.352730        -3.659642         2.059777
 H         2.319908        -1.763612         4.066418
 H         3.642902        -1.686357         2.927445
 H         2.631541         1.228526         1.422878
