19
Iteration:  3359charge 0 multiplicity 1
 C        -0.209124        -0.380926         0.195972
 C         1.234818        -0.573397         0.443059
 O         2.335303        -0.067645        -0.577137
 C         3.001776        -0.804830         0.433727
 C         1.895432        -1.904987         0.585759
 C         1.697587        -2.523208         2.038803
 C         2.553671        -1.679754         3.082991
 O         2.444012        -0.303419         2.817947
 C         2.343902         0.062276         1.505603
 H        -0.948733        -0.627579         1.043136
 H        -0.491355         0.632309        -0.165016
 H        -0.380784        -0.922656        -0.736692
 H         4.118577        -0.987884         0.365881
 H         1.707494        -2.610769        -0.236832
 H         0.661247        -2.664047         2.359492
 H         2.172706        -3.640772         1.994966
 H         2.245397        -1.858092         4.095768
 H         3.664206        -2.037662         2.695855
 H         2.506435         1.110553         1.489819
