19
Iteration:  3639
 C        -0.184846        -0.078896         0.255471
 C         1.252245        -0.485100         0.442727
 O         2.231862        -0.310084        -0.683099
 C         3.041666        -0.903159         0.398022
 C         1.945640        -1.930168         0.695483
 C         1.972153        -2.612316         2.045863
 C         2.501675        -1.721504         3.075524
 O         2.211393        -0.224810         2.848170
 C         2.399590         0.062994         1.433884
 H        -0.910411        -0.781715         0.735130
 H        -0.509865         0.848092         0.691924
 H        -0.499449        -0.083532        -0.789013
 H         4.093033        -0.958473         0.243989
 H         1.803529        -2.573875        -0.155353
 H         0.863403        -3.107823         2.203266
 H         2.647164        -3.618148         1.915823
 H         2.081475        -1.932851         4.089739
 H         3.544519        -1.633797         3.068054
 H         2.589868         1.207385         1.377477
