19
Iteration:  4288charge 0 multiplicity 1
 C        -0.167123        -0.229420         0.376892
 C         1.298316        -0.526634         0.477581
 O         2.266197        -0.296721        -0.640763
 C         3.073285        -0.853455         0.401263
 C         2.016593        -1.999532         0.621213
 C         1.762104        -2.561230         2.067611
 C         2.463241        -1.628252         3.052524
 O         2.327387        -0.203682         2.817665
 C         2.304986         0.070283         1.336329
 H        -0.566508        -0.304416         1.378917
 H        -0.233395         0.751129        -0.121074
 H        -0.688426        -0.869828        -0.318302
 H         4.149098        -0.831584        -0.044601
 H         1.779470        -2.648943        -0.258912
 H         0.662404        -2.688755         2.189228
 H         2.317237        -3.429401         2.168038
 H         1.973713        -1.617307         4.029889
 H         3.555360        -1.991625         3.053928
 H         2.473917         1.164582         1.277716
