19
Iteration:  4336charge 0 multiplicity 1
 C        -0.158041        -0.032202         0.184034
 C         1.213218        -0.489517         0.492641
 O         2.241725        -0.367292        -0.696173
 C         3.007075        -0.914794         0.396882
 C         1.875224        -1.927027         0.735438
 C         1.991530        -2.673016         2.087733
 C         2.624897        -1.633699         3.116621
 O         2.192115        -0.230803         2.764928
 C         2.312774         0.063876         1.451668
 H        -0.820116        -0.721081         0.839588
 H        -0.278408         1.079038         0.296235
 H        -0.478720        -0.192278        -0.901595
 H         4.007761        -1.202770         0.393969
 H         1.760736        -2.722115        -0.001029
 H         0.971174        -3.016506         2.322302
 H         2.678298        -3.574819         2.021703
 H         2.453401        -1.563150         4.182453
 H         3.672764        -1.604430         2.803215
 H         2.618022         1.150510         1.546429
