19
Iteration:  3143
 C        -0.120808        -0.274964         0.280621
 C         1.339023        -0.537603         0.428524
 O         2.183132        -0.177980        -0.644664
 C         3.081836        -0.835375         0.380334
 C         1.954920        -1.859707         0.623074
 C         1.835822        -2.526537         1.974041
 C         2.476036        -1.724334         3.101896
 O         2.272259        -0.306121         2.896868
 C         2.379576         0.038340         1.460320
 H        -0.628805        -0.515982         1.295574
 H        -0.399419         0.810080         0.162819
 H        -0.587392        -0.714488        -0.621820
 H         4.096377        -0.892358        -0.122478
 H         1.839468        -2.561842        -0.261822
 H         0.714311        -2.773942         1.989183
 H         2.166815        -3.526986         1.999023
 H         2.085262        -1.949460         4.082772
 H         3.478719        -1.795479         3.141013
 H         2.527441         1.099462         1.503411
