19
Iteration:  1512
 C        -0.139437        -0.050656         0.253531
 C         1.267323        -0.612812         0.386796
 O         2.153863        -0.206048        -0.699119
 C         3.110511        -0.853850         0.504028
 C         2.037886        -1.966034         0.710960
 C         1.874146        -2.601660         2.112522
 C         2.579061        -1.673218         3.074796
 O         2.246624        -0.304081         2.761367
 C         2.251031        -0.003526         1.359177
 H        -0.475832        -0.000047         1.325690
 H         0.112679         0.979588        -0.100022
 H        -1.038158        -0.387432        -0.236530
 H         4.169549        -0.780137         0.364022
 H         1.921590        -2.720588        -0.054973
 H         0.744287        -2.482085         2.341174
 H         2.021278        -3.723003         2.234521
 H         2.199461        -1.878837         4.145998
 H         3.765971        -2.007679         2.940606
 H         2.336926         1.087815         1.399259
