19
Iteration:  4940charge 0 multiplicity 1
 C        -0.184741        -0.278219         0.174168
 C         1.238920        -0.564570         0.356356
 O         2.262767        -0.096176        -0.555066
 C         3.064747        -0.860106         0.415991
 C         1.941159        -1.937895         0.674917
 C         1.747392        -2.454615         2.043597
 C         2.601193        -1.740521         3.069642
 O         2.405483        -0.347957         2.857924
 C         2.235988         0.063333         1.428523
 H        -0.548862         0.076719         1.156537
 H        -0.210215         0.444167        -0.626619
 H        -0.781946        -1.158977        -0.114277
 H         4.144237        -0.887742         0.260956
 H         1.954490        -2.750712        -0.117671
 H         0.645875        -2.138639         2.290396
 H         1.988339        -3.546535         2.073611
 H         2.333669        -2.145346         4.141060
 H         3.655065        -1.898112         2.936941
 H         2.328969         1.174328         1.382874
