19
Iteration:  2799
 C        -0.250096        -0.252172         0.247750
 C         1.275427        -0.548793         0.415742
 O         2.330530        -0.168665        -0.619252
 C         3.088072        -0.834870         0.520779
 C         1.911364        -1.939552         0.608613
 C         1.784388        -2.571127         1.966095
 C         2.526308        -1.738293         2.978995
 O         2.337663        -0.244262         2.864697
 C         2.318068         0.066908         1.512414
 H        -0.618004        -0.604712         1.186525
 H        -0.423155         0.857665         0.250837
 H        -0.616139        -0.696681        -0.708580
 H         4.125573        -0.973437         0.378738
 H         1.630683        -2.536819        -0.231819
 H         0.736569        -2.700460         2.295635
 H         2.214414        -3.491304         2.009661
 H         2.412574        -2.014999         4.026345
 H         3.545071        -1.776628         2.722214
 H         2.397204         1.151024         1.326600
