19
Iteration:  3090
 C        -0.052594        -0.102153         0.417510
 C         1.312131        -0.499477         0.446601
 O         2.220126        -0.282927        -0.678772
 C         3.044257        -0.871556         0.452318
 C         1.969221        -1.920851         0.594174
 C         1.986986        -2.616701         1.946088
 C         2.487884        -1.665989         3.000793
 O         2.092752        -0.292996         2.881749
 C         2.313233         0.046227         1.410068
 H        -0.702261        -0.300352         1.326099
 H        -0.033914         0.991898         0.151304
 H        -0.689701        -0.611874        -0.343761
 H         4.106204        -0.917143         0.134593
 H         1.852279        -2.505441        -0.370528
 H         0.923527        -3.098556         2.046888
 H         2.646577        -3.443275         2.009216
 H         1.933904        -1.972482         4.006399
 H         3.634351        -1.712992         3.447103
 H         2.517059         1.138109         1.318402
