19
Iteration:  2915
 C        -0.174339        -0.095440         0.373638
 C         1.301349        -0.552020         0.374013
 O         2.239594        -0.200795        -0.709496
 C         3.120174        -0.795011         0.369782
 C         2.093052        -1.984995         0.627593
 C         1.878818        -2.566428         2.034423
 C         2.527338        -1.739552         3.132216
 O         2.071906        -0.338394         2.844011
 C         2.372785         0.034162         1.445887
 H        -0.631245        -0.252481         1.338019
 H        -0.395358         0.977655         0.322781
 H        -0.771879        -0.404278        -0.395331
 H         4.147590        -0.889607        -0.105033
 H         1.855515        -2.636546        -0.234331
 H         0.788810        -2.663241         2.212439
 H         2.304382        -3.682089         1.853502
 H         2.149752        -2.060231         4.153104
 H         3.672550        -1.655250         3.112696
 H         2.397914         1.070501         1.482145
