19
Iteration:  1168
 C        -0.226378        -0.131286         0.164854
 C         1.228736        -0.366146         0.383899
 O         2.228218        -0.295894        -0.633013
 C         3.000438        -1.016217         0.511146
 C         1.901736        -1.911917         0.647202
 C         1.929161        -2.621164         2.038252
 C         2.555929        -1.653872         3.089974
 O         2.293153        -0.259278         2.840160
 C         2.395762         0.071721         1.484040
 H        -0.792558        -0.789813         0.838193
 H        -0.638322         0.801040         0.496157
 H        -0.542953        -0.382308        -0.831211
 H         4.043565        -1.220221         0.209595
 H         1.645517        -2.396468        -0.336565
 H         0.821299        -2.769720         2.319958
 H         2.622833        -3.458547         2.092645
 H         2.517561        -1.896858         4.114205
 H         3.538002        -1.684339         2.737988
 H         2.949245         1.016458         1.401112
