19
Iteration:  4864
 C        -0.258782         0.033722         0.369843
 C         1.218634        -0.610590         0.372311
 O         2.267609        -0.243343        -0.664410
 C         3.118208        -0.928261         0.307708
 C         2.055333        -1.978446         0.650672
 C         1.992864        -2.536731         2.020881
 C         2.490790        -1.695281         3.100232
 O         2.152614        -0.236120         2.823623
 C         2.341359        -0.042586         1.483288
 H        -0.907019        -0.579551         0.992835
 H        -0.282035         0.975846         0.854948
 H        -0.592282         0.075126        -0.666729
 H         4.136220        -1.104657        -0.006189
 H         1.821021        -2.828892        -0.064328
 H         0.913379        -3.029531         2.104513
 H         2.598392        -3.451750         2.161245
 H         1.877358        -1.864870         4.018667
 H         3.651109        -1.685080         3.254471
 H         2.491877         1.051501         1.325509
