19
Iteration:   339charge 0 multiplicity 1
 C        -0.123799        -0.191423         0.307913
 C         1.298237        -0.462729         0.517338
 O         2.321511        -0.201837        -0.692872
 C         2.999232        -1.040234         0.269937
 C         1.758143        -1.932732         0.664574
 C         1.836735        -2.516731         2.068301
 C         2.503250        -1.600506         3.068162
 O         2.236971        -0.281116         2.845532
 C         2.484044         0.069671         1.448683
 H        -0.776449        -0.952357         0.852266
 H        -0.496974         0.820822         0.517743
 H        -0.370721        -0.429696        -0.702423
 H         3.937446        -1.422218        -0.047698
 H         1.307876        -2.476908        -0.106720
 H         0.959290        -3.037028         2.492931
 H         2.611956        -3.300041         2.142905
 H         2.152189        -1.868673         4.069063
 H         3.747326        -1.759734         3.092102
 H         2.855213         1.044494         1.292464
