19
Iteration:  2970charge 0 multiplicity 1
 C        -0.243263        -0.274820         0.203793
 C         1.243385        -0.458282         0.499756
 O         2.283542        -0.178003        -0.636245
 C         3.041393        -0.874120         0.418377
 C         1.945497        -1.895267         0.597811
 C         1.822993        -2.565976         1.977350
 C         2.535440        -1.700306         3.048165
 O         2.311400        -0.278244         2.926941
 C         2.397245         0.033432         1.461215
 H        -0.815281        -0.853809         0.891272
 H        -0.490424         0.780807         0.260174
 H        -0.501387        -0.750642        -0.685065
 H         4.115672        -1.017782         0.181600
 H         1.691522        -2.304727        -0.373352
 H         0.790272        -2.730280         2.218726
 H         2.412323        -3.544340         1.986134
 H         2.158149        -1.923358         4.041313
 H         3.519273        -1.796308         3.025026
 H         2.625017         1.057962         1.515388
