19
Iteration:   430charge 0 multiplicity 1
 C        -0.278999        -0.185016         0.251575
 C         1.266997        -0.447902         0.501232
 O         2.293991        -0.281567        -0.594721
 C         3.058999        -0.911586         0.433097
 C         1.939043        -1.911355         0.623964
 C         1.754504        -2.526497         2.064821
 C         2.543159        -1.671870         3.010325
 O         2.334153        -0.242395         2.819690
 C         2.433994         0.007256         1.441013
 H        -0.921928         0.028699         1.101424
 H        -0.415233         0.601492        -0.476703
 H        -0.664175        -1.177985        -0.031647
 H         4.056590        -1.200361        -0.051285
 H         1.578743        -2.482282        -0.260095
 H         0.668353        -2.458936         2.193773
 H         2.132882        -3.646148         2.005315
 H         2.324845        -1.843887         4.074324
 H         3.712727        -1.966430         2.808144
 H         2.803110         1.085201         1.316585
