19
Iteration:  4933charge 0 multiplicity 1
 C        -0.217879        -0.258194         0.181697
 C         1.292663        -0.539666         0.404988
 O         2.260895        -0.106381        -0.638029
 C         3.053070        -0.845589         0.462158
 C         1.957181        -1.958924         0.625963
 C         1.782730        -2.494902         2.054743
 C         2.580205        -1.736134         3.048862
 O         2.363213        -0.313217         2.898485
 C         2.292613         0.013943         1.466025
 H        -0.769736         0.123554         1.057404
 H        -0.401691         0.567997        -0.510057
 H        -0.686138        -1.153714        -0.227975
 H         4.116145        -0.910311         0.118586
 H         1.841505        -2.742557        -0.152826
 H         0.760634        -2.361530         2.506307
 H         1.790784        -3.574659         2.027311
 H         2.360215        -1.814771         4.051258
 H         3.718802        -1.874632         2.848258
 H         2.336727         1.078850         1.370524
