19
Iteration:  2518charge 0 multiplicity 1
 C        -0.152415        -0.176448         0.285480
 C         1.319439        -0.495998         0.450380
 O         2.094012        -0.202650        -0.689363
 C         3.188608        -0.799659         0.487803
 C         2.108495        -1.924843         0.635159
 C         1.740267        -2.554178         2.031392
 C         2.452608        -1.770459         3.023228
 O         2.253175        -0.344881         2.837747
 C         2.381442         0.053530         1.453297
 H        -0.666936        -0.329964         1.257945
 H        -0.268232         0.939018         0.106064
 H        -0.631005        -0.675095        -0.601440
 H         4.257290        -0.818050         0.201376
 H         1.965968        -2.747123        -0.129145
 H         0.719879        -2.596151         2.063532
 H         2.143325        -3.623964         1.969702
 H         2.207954        -1.816113         4.124746
 H         3.571537        -1.941901         2.971352
 H         2.613832         1.174075         1.446244
