19
Iteration:   485
 C        -0.189760        -0.043083         0.386878
 C         1.280130        -0.597951         0.520110
 O         2.200471        -0.252955        -0.756127
 C         3.104315        -0.879129         0.381768
 C         2.078905        -1.986077         0.689926
 C         1.847241        -2.596741         2.058042
 C         2.479669        -1.666595         3.065310
 O         2.233306        -0.279599         2.773364
 C         2.407209         0.040628         1.398867
 H        -0.519827         0.214969         1.376690
 H        -0.133191         0.859730        -0.209905
 H        -1.005416        -0.533709        -0.167330
 H         4.181162        -1.129452         0.099947
 H         1.778847        -2.643560        -0.151871
 H         0.762512        -2.561010         2.142786
 H         1.965450        -3.757274         2.146800
 H         1.907282        -1.729689         3.994168
 H         3.490622        -1.831655         3.285735
 H         2.477924         1.164266         1.376402
