19
Iteration:  1933charge 0 multiplicity 1
 C        -0.207411        -0.096036         0.261384
 C         1.210634        -0.621378         0.398525
 O         2.285084        -0.210115        -0.618404
 C         3.121613        -0.848954         0.455558
 C         1.997278        -1.925703         0.631425
 C         1.776152        -2.574648         2.101042
 C         2.582344        -1.721266         3.064791
 O         2.349977        -0.277793         2.809442
 C         2.241568         0.048516         1.399077
 H        -0.736446        -0.213860         1.231667
 H        -0.201504         0.980271        -0.018043
 H        -0.885909        -0.537954        -0.505019
 H         4.222006        -0.820644         0.204406
 H         1.932047        -2.652224        -0.153881
 H         0.788946        -2.617836         2.285805
 H         1.951197        -3.606391         2.185160
 H         2.289448        -2.037507         3.971773
 H         3.481490        -2.139133         2.751352
 H         2.271448         1.114584         1.434727
