19
Iteration:   392
 C        -0.160616        -0.026907         0.257992
 C         1.210379        -0.615323         0.403683
 O         2.236996        -0.323609        -0.703591
 C         3.056563        -0.788775         0.366431
 C         2.019589        -1.964387         0.678734
 C         1.740119        -2.539493         2.072502
 C         2.613111        -1.745148         3.125472
 O         2.399069        -0.283348         2.831279
 C         2.238162         0.021097         1.459192
 H        -0.719282        -0.102673         1.223854
 H        -0.094106         1.036614        -0.082318
 H        -0.697125        -0.446461        -0.606427
 H         4.104963        -0.813171         0.232454
 H         1.912078        -2.665108        -0.148499
 H         0.693200        -2.336639         2.330349
 H         1.799570        -3.529860         2.277405
 H         2.345154        -1.901015         4.176668
 H         3.600148        -1.914069         3.028230
 H         2.210247         1.071750         1.339727
