19
Iteration:  1086
 C        -0.239573        -0.133010         0.406273
 C         1.284416        -0.538619         0.503489
 O         2.335485        -0.248705        -0.710354
 C         3.156692        -0.816960         0.349087
 C         1.972382        -1.955440         0.615177
 C         1.757068        -2.558450         2.030669
 C         2.475612        -1.664967         3.040848
 O         2.363800        -0.283122         2.812299
 C         2.239723         0.023471         1.414344
 H        -0.697534        -0.066309         1.401291
 H        -0.383923         0.678178        -0.375666
 H        -0.671798        -1.067325        -0.073521
 H         4.257050        -0.891072         0.292424
 H         1.856396        -2.708833        -0.148501
 H         0.730369        -2.635579         2.334244
 H         2.115804        -3.599713         2.189321
 H         1.924690        -1.857044         4.033779
 H         3.441218        -1.935347         3.211067
 H         2.424936         1.111590         1.364717
