19
Iteration:   151
 C        -0.199837        -0.126594         0.312991
 C         1.290728        -0.444570         0.541765
 O         2.293054        -0.309811        -0.628094
 C         3.025554        -0.982844         0.420935
 C         1.862320        -1.945638         0.635107
 C         1.837836        -2.525393         1.991304
 C         2.508316        -1.613277         2.963200
 O         2.290483        -0.244801         2.820562
 C         2.458202         0.045163         1.412343
 H        -0.690283        -0.509911         1.185389
 H        -0.460891         0.949885         0.272922
 H        -0.697120        -0.841256        -0.441291
 H         4.095840        -1.166902         0.302358
 H         1.722556        -2.732460        -0.095747
 H         0.680952        -2.638722         2.201870
 H         2.169128        -3.624762         2.085331
 H         2.071321        -1.965622         3.956399
 H         3.617463        -1.807866         3.013330
 H         2.695443         1.122223         1.291705
