19
Iteration:  1334charge 0 multiplicity 1
 C        -0.260983        -0.093853         0.204791
 C         1.248074        -0.557663         0.488549
 O         2.260770        -0.293586        -0.645899
 C         3.102020        -0.849473         0.423243
 C         1.963064        -1.937522         0.700112
 C         1.812692        -2.576955         2.093643
 C         2.560427        -1.693649         3.006514
 O         2.286067        -0.288319         2.812620
 C         2.359136         0.070561         1.418737
 H        -0.722038        -0.031113         1.181654
 H        -0.134267         0.919239        -0.157212
 H        -0.767594        -0.790752        -0.477095
 H         4.231883        -0.824844         0.243150
 H         1.700827        -2.664581        -0.122938
 H         0.719470        -2.611047         2.347908
 H         2.342586        -3.545338         2.098043
 H         2.354002        -1.985306         3.989168
 H         3.638326        -1.853713         2.898142
 H         2.408142         1.146272         1.489682
