19
Iteration:  4647charge 0 multiplicity 1
 C        -0.129669        -0.232371         0.403473
 C         1.284617        -0.562709         0.457742
 O         2.241596        -0.219486        -0.681836
 C         3.130444        -0.870072         0.412173
 C         1.931221        -1.998070         0.619983
 C         1.801956        -2.535585         2.008793
 C         2.456078        -1.670497         3.046814
 O         2.254878        -0.228260         2.763896
 C         2.370280         0.130436         1.425275
 H        -0.479736        -0.582151         1.452011
 H        -0.221484         0.896311         0.375792
 H        -0.784448        -0.871238        -0.285291
 H         4.266848        -0.821464         0.360123
 H         1.730591        -2.802947        -0.161065
 H         0.816352        -2.822419         2.285150
 H         2.273674        -3.554356         2.084295
 H         2.086627        -1.746842         4.068478
 H         3.522204        -2.008607         3.065807
 H         2.639237         1.138360         1.128317
