19
Iteration:  2227
 C        -0.162689         0.010898         0.318839
 C         1.190469        -0.699887         0.369008
 O         2.257841        -0.175168        -0.679751
 C         3.101364        -0.824682         0.440951
 C         1.996412        -1.991426         0.658739
 C         1.832332        -2.605536         2.038458
 C         2.520430        -1.720904         3.081685
 O         2.249410        -0.276927         2.809525
 C         2.305747         0.005713         1.447271
 H        -0.778952        -0.337545         1.176166
 H         0.176695         1.080519         0.343873
 H        -0.573370        -0.256541        -0.660325
 H         4.225718        -0.849319         0.115537
 H         1.912243        -2.734096        -0.111074
 H         0.830978        -2.642363         2.342279
 H         2.499347        -3.570363         2.272195
 H         2.166693        -2.060380         4.082095
 H         3.679603        -1.811520         3.003073
 H         2.265108         1.111441         1.282422
