19
Iteration:  4491charge 0 multiplicity 1
 C        -0.184158        -0.117890         0.444171
 C         1.342411        -0.573135         0.439331
 O         2.213544        -0.344636        -0.707835
 C         3.123055        -0.881391         0.403261
 C         2.014934        -2.011742         0.624372
 C         1.889475        -2.598377         1.998245
 C         2.409139        -1.619104         3.089175
 O         2.201642        -0.224998         2.743179
 C         2.377434         0.121113         1.460805
 H        -0.292276         0.296353         1.475497
 H        -0.223020         0.868953        -0.169320
 H        -0.834326        -0.900631        -0.015424
 H         4.028876        -0.875251        -0.090289
 H         1.700337        -2.658509        -0.232743
 H         0.914685        -2.970841         2.299755
 H         2.617052        -3.366098         2.083100
 H         1.927203        -1.793673         4.121380
 H         3.576283        -1.738710         3.226725
 H         2.207726         1.202604         1.402330
