19
Iteration:  3386
 C        -0.154635        -0.224905         0.068199
 C         1.272523        -0.467170         0.470509
 O         2.128938        -0.254042        -0.556912
 C         3.028595        -0.853158         0.428754
 C         2.005854        -1.862868         0.676269
 C         1.779963        -2.532175         2.019751
 C         2.618095        -1.751747         3.010327
 O         2.331766        -0.305357         2.881460
 C         2.343711         0.083408         1.528487
 H        -0.858891        -0.814473         0.615041
 H        -0.562203         0.779213        -0.014253
 H        -0.207667        -0.759198        -0.915643
 H         4.060775        -0.968098         0.261829
 H         1.673496        -2.535472        -0.140820
 H         0.697344        -2.428581         2.364694
 H         2.209846        -3.556816         1.937865
 H         2.528261        -1.973929         4.165963
 H         3.694239        -1.935218         2.682062
 H         2.596443         1.237396         1.616820
