19
Iteration:  1203charge 0 multiplicity 1
 C        -0.053032        -0.040371         0.300186
 C         1.234373        -0.643399         0.488983
 O         2.177415        -0.274207        -0.666378
 C         3.062995        -0.795301         0.402856
 C         1.995622        -1.973686         0.617710
 C         1.877911        -2.539090         2.119157
 C         2.544893        -1.648069         3.112102
 O         2.261213        -0.315935         2.752411
 C         2.219449         0.000971         1.383148
 H        -0.864517        -0.580583         0.780013
 H         0.206361         0.921043         0.620413
 H        -0.220479         0.098423        -0.746021
 H         4.181838        -0.913906         0.215567
 H         1.851019        -2.744302        -0.174396
 H         0.766345        -2.713867         2.230860
 H         2.109144        -3.642005         2.294191
 H         2.358465        -1.714021         4.120402
 H         3.559727        -1.875693         2.976015
 H         2.375916         1.059159         1.399044
