19
Iteration:  3041charge 0 multiplicity 1
 C        -0.131212        -0.195052         0.227074
 C         1.272030        -0.507953         0.447283
 O         2.262749        -0.173073        -0.645099
 C         3.069447        -0.833230         0.530973
 C         1.894338        -1.931619         0.589548
 C         1.823761        -2.592231         2.015259
 C         2.615478        -1.725213         3.002127
 O         2.281839        -0.288377         2.832303
 C         2.266321         0.053144         1.502018
 H        -0.742679        -0.450731         1.130687
 H        -0.273541         0.859502        -0.009862
 H        -0.720005        -0.962295        -0.351626
 H         4.140301        -1.070752         0.502322
 H         1.755052        -2.647070        -0.214664
 H         0.694745        -2.640221         2.148267
 H         2.367596        -3.634428         1.899439
 H         2.268622        -1.808456         4.019746
 H         3.651037        -1.843652         2.946783
 H         2.359260         1.160265         1.348163
