19
Iteration:  3531
 C        -0.180871        -0.321768         0.249909
 C         1.305288        -0.519734         0.479999
 O         2.167685        -0.164908        -0.610590
 C         3.112058        -0.811896         0.355676
 C         2.015380        -1.858055         0.608145
 C         1.711091        -2.567173         2.007007
 C         2.432578        -1.697494         3.136808
 O         2.384696        -0.268980         2.823707
 C         2.435382         0.040599         1.425500
 H        -0.769765        -0.033077         1.147073
 H        -0.346796         0.405289        -0.564906
 H        -0.551241        -1.310424         0.025184
 H         4.203008        -0.876057         0.245884
 H         1.851169        -2.569657        -0.187402
 H         0.662448        -2.591962         1.978698
 H         2.137964        -3.510018         2.065138
 H         1.859056        -1.966417         4.122958
 H         3.474769        -2.107527         3.348525
 H         2.608907         1.124617         1.437320
