19
Iteration:  1548
 C        -0.158269        -0.071398         0.252647
 C         1.247574        -0.531083         0.495020
 O         2.228769        -0.321788        -0.642196
 C         3.075753        -0.957991         0.452125
 C         1.890593        -1.932732         0.670131
 C         1.947492        -2.577450         2.005838
 C         2.580004        -1.634801         2.998868
 O         2.177257        -0.264474         2.828457
 C         2.328117         0.065454         1.459389
 H        -0.771474        -0.231290         1.119662
 H        -0.079287         1.003135         0.197261
 H        -0.567825        -0.577869        -0.640068
 H         4.128846        -1.154134         0.390823
 H         1.596906        -2.498893        -0.174455
 H         0.847300        -2.777694         2.204739
 H         2.557039        -3.550406         1.871905
 H         2.379983        -1.968561         4.032087
 H         3.758009        -1.491956         2.978012
 H         2.645605         1.092916         1.219074
