19
Iteration:  4415
 C        -0.215802        -0.327083         0.284970
 C         1.259409        -0.544056         0.484509
 O         2.228523        -0.278632        -0.658690
 C         3.099669        -0.904159         0.440867
 C         1.934445        -1.850774         0.658526
 C         1.708210        -2.489800         2.030498
 C         2.504660        -1.632751         3.037846
 O         2.429473        -0.247807         2.787120
 C         2.368118         0.127050         1.398000
 H        -0.798427        -0.723029         1.174043
 H        -0.378769         0.783615         0.082750
 H        -0.349883        -1.065121        -0.556253
 H         4.134273        -1.161748         0.296107
 H         1.896308        -2.459710        -0.264870
 H         0.683574        -2.561827         2.391398
 H         2.027756        -3.594816         2.190399
 H         2.092786        -1.810378         4.085750
 H         3.588328        -1.906277         3.165976
 H         2.609019         1.175359         1.537434
