19
Iteration:   667charge 0 multiplicity 1
 C        -0.162761        -0.079584         0.420646
 C         1.312267        -0.474087         0.445737
 O         2.263369        -0.280599        -0.681158
 C         3.083851        -0.977163         0.424547
 C         1.866377        -1.979261         0.598466
 C         1.858941        -2.551940         2.010859
 C         2.507013        -1.643808         3.048124
 O         2.177673        -0.265982         2.800382
 C         2.408737         0.079433         1.410488
 H        -0.451964        -0.049731         1.502115
 H        -0.295882         0.764385        -0.270145
 H        -0.735997        -0.843513        -0.069899
 H         4.186407        -1.106444         0.063392
 H         1.657673        -2.614526        -0.292821
 H         0.906923        -3.097547         2.427389
 H         2.516270        -3.502092         2.049370
 H         2.114696        -1.864030         4.017678
 H         3.642795        -1.771037         3.089983
 H         2.837351         1.137945         1.449978
