19
Iteration:   536
 C        -0.231096        -0.128467         0.347299
 C         1.231886        -0.452883         0.492168
 O         2.345562        -0.261398        -0.631851
 C         2.975572        -0.996604         0.379284
 C         1.851040        -1.918119         0.613723
 C         1.872120        -2.582278         2.071748
 C         2.546758        -1.655310         3.121482
 O         2.245800        -0.238683         2.754388
 C         2.460047         0.034642         1.354973
 H        -0.900889        -0.695473         1.093302
 H        -0.462068         0.993430         0.363666
 H        -0.486942        -0.444123        -0.712779
 H         4.096840        -1.164738         0.334760
 H         1.666204        -2.596269        -0.230154
 H         0.851869        -2.997270         2.267450
 H         2.487634        -3.423576         1.902411
 H         2.190482        -1.750523         4.141872
 H         3.771139        -1.874758         3.173076
 H         2.780988         1.133800         1.320957
