19
Iteration:  4936
 C        -0.204502        -0.270548         0.183869
 C         1.274738        -0.547052         0.379642
 O         2.262551        -0.097368        -0.601436
 C         3.059086        -0.856571         0.443252
 C         1.946682        -1.960347         0.650199
 C         1.766771        -2.473049         2.049453
 C         2.583875        -1.740544         3.054779
 O         2.385157        -0.331531         2.886369
 C         2.264556         0.035729         1.441738
 H        -0.678052         0.113642         1.094394
 H        -0.329641         0.567169        -0.602914
 H        -0.730022        -1.171912        -0.187563
 H         4.116217        -0.887578         0.159104
 H         1.902292        -2.718227        -0.084703
 H         0.818551        -2.263056         2.413114
 H         1.861652        -3.570879         2.023135
 H         2.339319        -1.957027         4.138708
 H         3.669265        -1.845824         2.873334
 H         2.311458         1.135153         1.368227
