19
Iteration:  1958
 C        -0.139601        -0.305531         0.247322
 C         1.253586        -0.487620         0.525725
 O         2.261556        -0.225110        -0.674396
 C         2.998636        -0.905228         0.413681
 C         1.872296        -1.848292         0.627477
 C         1.766162        -2.507471         2.014442
 C         2.543544        -1.681110         3.035368
 O         2.344931        -0.301467         2.839091
 C         2.430570         0.143708         1.492627
 H        -0.767619        -0.534504         1.106994
 H        -0.306320         0.731000        -0.054427
 H        -0.446523        -0.897923        -0.566400
 H         4.033887        -1.174469         0.259581
 H         1.733926        -2.544284        -0.262587
 H         0.750469        -2.664470         2.285733
 H         2.077271        -3.620571         2.004204
 H         2.088197        -2.025345         4.008150
 H         3.554436        -2.117691         2.917885
 H         2.812622         1.168692         1.572657
