19
Iteration:  3579charge 0 multiplicity 1
 C        -0.159584        -0.100851         0.215083
 C         1.250335        -0.545438         0.487572
 O         2.272047        -0.288110        -0.574511
 C         3.029926        -0.928403         0.520812
 C         1.965032        -1.964461         0.571245
 C         1.872033        -2.605983         1.985942
 C         2.601590        -1.619698         2.971195
 O         2.220438        -0.223198         2.842707
 C         2.262976         0.060228         1.514485
 H        -0.790858        -0.173291         1.140614
 H        -0.058118         0.965570        -0.216692
 H        -0.564913        -0.882620        -0.516324
 H         4.126899        -0.966996         0.188605
 H         1.810366        -2.656014        -0.304534
 H         0.746731        -2.666170         2.366630
 H         2.317976        -3.621241         1.958051
 H         2.611646        -2.013810         3.966847
 H         3.704320        -1.693494         2.646993
 H         2.278684         1.133368         1.474785
