19
Iteration:  3536charge 0 multiplicity 1
 C        -0.171762        -0.287926         0.224634
 C         1.306050        -0.462400         0.477192
 O         2.179584        -0.162186        -0.632377
 C         3.115375        -0.785723         0.366413
 C         2.003766        -1.874001         0.624917
 C         1.742244        -2.570824         2.036138
 C         2.458795        -1.740740         3.170062
 O         2.374495        -0.289976         2.813964
 C         2.382867         0.040875         1.434804
 H        -0.698404        -0.065456         1.183022
 H        -0.643201         0.298218        -0.635329
 H        -0.599471        -1.294950        -0.080330
 H         4.198111        -1.050647         0.131965
 H         2.007901        -2.551282        -0.287265
 H         0.506135        -2.717634         2.001415
 H         1.999108        -3.731254         2.136578
 H         2.025458        -1.766476         4.139144
 H         3.510937        -2.004362         3.360512
 H         2.719384         1.085887         1.321837
