19
Iteration:   283charge 0 multiplicity 1
 C        -0.093889        -0.069352         0.298294
 C         1.254628        -0.677221         0.489504
 O         2.213604        -0.315208        -0.679360
 C         3.128235        -0.760653         0.435377
 C         1.999851        -1.928383         0.684646
 C         1.635913        -2.596906         2.017795
 C         2.525482        -1.657172         3.077619
 O         2.399007        -0.273479         2.794401
 C         2.277530         0.030692         1.387078
 H        -0.610052        -0.188220         1.275048
 H        -0.096187         1.019426         0.089072
 H        -0.819314        -0.653240        -0.276984
 H         4.140426        -0.816715         0.145365
 H         1.875164        -2.510090        -0.189813
 H         0.516767        -2.493848         2.128875
 H         2.054308        -3.618495         2.018482
 H         2.292950        -1.826855         4.172937
 H         3.703463        -1.890039         2.971440
 H         2.345158         1.088167         1.324317
