19
Iteration:  4111
 C        -0.263425        -0.194041         0.274079
 C         1.277213        -0.505325         0.391855
 O         2.258789        -0.350260        -0.720168
 C         3.055900        -0.830417         0.465170
 C         1.962776        -1.928644         0.709764
 C         1.787285        -2.545018         2.076889
 C         2.606989        -1.687212         3.087922
 O         2.314691        -0.209405         2.818362
 C         2.380260         0.097088         1.384168
 H        -0.798488        -0.997847         0.834033
 H        -0.631167         0.726793         0.832340
 H        -0.713013        -0.407127        -0.733082
 H         4.144260        -1.095106         0.270599
 H         1.938641        -2.584134        -0.186456
 H         0.639835        -2.699564         2.218001
 H         2.128135        -3.574939         2.155735
 H         2.080651        -1.844453         4.091722
 H         3.724333        -1.775439         3.089988
 H         2.566310         1.121589         1.358832
