19
Iteration:   671charge 0 multiplicity 1
 C        -0.165236        -0.041081         0.417714
 C         1.296652        -0.520108         0.391731
 O         2.250219        -0.281169        -0.678001
 C         3.074628        -0.977187         0.394749
 C         1.902540        -1.981225         0.605702
 C         1.846660        -2.574429         2.021136
 C         2.502210        -1.651595         3.069363
 O         2.182400        -0.268630         2.814915
 C         2.415683         0.113536         1.426333
 H        -0.307420        -0.045082         1.503290
 H        -0.387889         0.832589        -0.232316
 H        -0.830350        -0.837538        -0.054270
 H         4.126624        -1.085883         0.147441
 H         1.912474        -2.684188        -0.251199
 H         0.990618        -3.046264         2.388948
 H         2.452956        -3.408731         2.003089
 H         2.181747        -1.859357         4.106882
 H         3.521205        -1.795508         3.000691
 H         2.867349         1.102126         1.456665
