19
Iteration:   372
 C        -0.244585        -0.061834         0.243064
 C         1.251500        -0.549009         0.455576
 O         2.206893        -0.318875        -0.632068
 C         3.059399        -0.930019         0.510099
 C         1.950856        -1.952574         0.665068
 C         1.817543        -2.514828         2.043827
 C         2.544558        -1.658621         3.016239
 O         2.326197        -0.286894         2.811855
 C         2.404790         0.076266         1.397619
 H        -0.849891        -0.458361         1.104792
 H        -0.235997         1.042026         0.299097
 H        -0.533050        -0.322044        -0.742121
 H         4.056346        -1.138841         0.196329
 H         1.801546        -2.578103        -0.178356
 H         0.773799        -2.714847         2.344704
 H         2.339214        -3.461359         2.110669
 H         2.221227        -1.877921         4.021522
 H         3.700441        -2.012079         2.944407
 H         2.720305         1.087981         1.230883
