19
Iteration:  3486charge 0 multiplicity 1
 C        -0.221153        -0.241540         0.414759
 C         1.335696        -0.512496         0.391817
 O         2.240185        -0.167480        -0.692423
 C         3.139253        -0.827476         0.480798
 C         1.991489        -1.930714         0.617571
 C         1.862304        -2.591357         2.001066
 C         2.340901        -1.696787         3.106349
 O         2.299483        -0.276155         2.759893
 C         2.388318         0.038085         1.376325
 H        -0.570534        -0.196837         1.448699
 H        -0.477292         0.737532        -0.012016
 H        -0.920514        -0.972954        -0.049801
 H         4.184536        -0.835593         0.174039
 H         1.912645        -2.725399        -0.146676
 H         0.714928        -2.741724         2.137201
 H         2.396355        -3.546820         2.002606
 H         1.815127        -1.840405         4.170056
 H         3.422069        -1.972010         3.441549
 H         2.783661         1.132625         1.267579
