19
Iteration:  2593
 C        -0.105939        -0.175217         0.281975
 C         1.344895        -0.481166         0.537050
 O         2.206973        -0.219406        -0.662541
 C         3.087237        -0.881479         0.355179
 C         1.878937        -1.847912         0.714865
 C         1.885650        -2.636722         1.956723
 C         2.538299        -1.692739         3.034111
 O         2.151958        -0.319679         2.859672
 C         2.390084         0.038256         1.458586
 H        -0.863741        -0.505941         0.928118
 H        -0.366099         0.883446         0.062470
 H        -0.231997        -0.543843        -0.754029
 H         4.111782        -0.897844         0.085447
 H         1.536496        -2.363216        -0.236074
 H         0.819206        -3.008444         2.251016
 H         2.458035        -3.734994         1.858668
 H         2.191171        -1.676218         4.116746
 H         3.642744        -1.768410         3.303162
 H         2.659341         1.152494         1.357704
