19
Iteration:  3930
 C        -0.133434        -0.231545         0.191906
 C         1.215110        -0.508804         0.476191
 O         2.181252        -0.280705        -0.621775
 C         3.012630        -0.892533         0.396716
 C         1.977857        -1.931580         0.657060
 C         1.872773        -2.542555         2.089580
 C         2.530440        -1.636485         3.055966
 O         2.372882        -0.241259         2.832030
 C         2.317920         0.074213         1.452991
 H        -0.924112        -0.632977         0.777773
 H        -0.357477         0.862138         0.140244
 H        -0.327247        -0.614978        -0.820357
 H         4.079962        -1.109778         0.278610
 H         1.600737        -2.673356        -0.056846
 H         0.762830        -2.496486         2.271629
 H         2.396066        -3.575126         2.075665
 H         2.261524        -1.890945         4.036882
 H         3.579762        -1.858081         3.053147
 H         2.477805         1.163206         1.223585
