19
Iteration:  3222
 C        -0.187753        -0.145580         0.158026
 C         1.275846        -0.579379         0.520227
 O         2.151757        -0.215835        -0.589573
 C         3.111631        -0.828367         0.381624
 C         1.996799        -1.912680         0.627913
 C         1.842392        -2.568550         2.040052
 C         2.617037        -1.742223         3.018177
 O         2.253289        -0.337005         2.847740
 C         2.296028         0.079151         1.510781
 H        -0.932386        -0.398091         0.952323
 H        -0.141637         0.986871         0.119568
 H        -0.460654        -0.631133        -0.842983
 H         4.180419        -0.902790         0.183612
 H         1.916126        -2.567879        -0.271284
 H         0.710961        -2.521101         2.301907
 H         2.241858        -3.516678         1.944020
 H         2.227884        -1.998531         4.093568
 H         3.824167        -1.665321         2.988216
 H         2.458770         1.216068         1.508834
