19
Iteration:   464
 C        -0.109188        -0.172977         0.383628
 C         1.315531        -0.457131         0.395161
 O         2.296008        -0.258490        -0.646758
 C         3.032405        -0.900508         0.415984
 C         1.839035        -1.905631         0.613446
 C         1.810069        -2.528785         2.053811
 C         2.451708        -1.666142         3.088286
 O         2.308396        -0.263424         2.794123
 C         2.348804        -0.005621         1.412199
 H        -0.381053         0.131654         1.353722
 H        -0.494804         0.496283        -0.369983
 H        -0.696842        -1.011687        -0.026471
 H         4.082749        -1.113692         0.042833
 H         1.666832        -2.615141        -0.247277
 H         0.848196        -2.993448         2.352572
 H         2.402609        -3.574244         1.985746
 H         2.209063        -1.730712         4.180770
 H         3.626508        -1.832298         2.972164
 H         2.739001         1.028902         1.232800
