19
Iteration:    89charge 0 multiplicity 1
 C        -0.138277        -0.065618         0.296981
 C         1.256885        -0.625652         0.518711
 O         2.153728        -0.353755        -0.679095
 C         3.142155        -0.844205         0.357453
 C         1.998115        -2.055758         0.680620
 C         1.701648        -2.487362         2.028041
 C         2.484771        -1.653359         3.042635
 O         2.415840        -0.236713         2.850503
 C         2.340482         0.043371         1.422377
 H        -1.061110        -0.588654         0.536249
 H        -0.198061         0.921933         0.784520
 H        -0.003439         0.229540        -0.697176
 H         4.189136        -0.719996         0.097230
 H         1.882604        -2.772303        -0.115312
 H         0.697657        -2.367840         2.214482
 H         1.988338        -3.547664         2.113593
 H         2.077524        -1.822614         4.017682
 H         3.515900        -1.947506         3.039056
 H         2.305893         1.106022         1.291955
