19
Iteration:  4542
 C        -0.176083        -0.124397         0.196847
 C         1.260967        -0.526812         0.429571
 O         2.217082        -0.228078        -0.631836
 C         3.020679        -0.977193         0.408868
 C         1.950393        -1.961092         0.691796
 C         1.879919        -2.542800         2.080964
 C         2.650317        -1.611823         3.014430
 O         2.221422        -0.259578         2.861514
 C         2.283067        -0.005111         1.451703
 H        -0.692349        -0.462658         1.096833
 H        -0.206637         0.949405         0.121014
 H        -0.386783        -0.489199        -0.794663
 H         4.141382        -1.239152         0.268448
 H         1.599808        -2.712387        -0.039265
 H         0.846341        -2.584879         2.577873
 H         2.512881        -3.478770         2.121526
 H         2.537872        -1.840519         4.064079
 H         3.658872        -1.659572         2.704796
 H         2.468744         1.099316         1.102278
