19
Iteration:  4441
 C        -0.204207        -0.334013         0.339139
 C         1.264876        -0.547556         0.459948
 O         2.265026        -0.262624        -0.670892
 C         3.067357        -0.835097         0.332608
 C         1.948042        -1.874451         0.649742
 C         1.742151        -2.549568         2.006112
 C         2.361226        -1.634249         3.122952
 O         2.434367        -0.192645         2.808052
 C         2.435960         0.053988         1.401919
 H        -0.419147        -0.269996         1.390931
 H        -0.518151         0.559361        -0.115085
 H        -0.534658        -1.266000        -0.058186
 H         4.213228        -0.880543         0.079656
 H         1.804502        -2.466051        -0.273290
 H         0.658912        -2.747830         2.233180
 H         2.230062        -3.604711         2.168768
 H         1.898858        -1.805951         4.069509
 H         3.382463        -1.911789         3.288091
 H         2.647810         1.123993         1.452232
