19
Iteration:  2297charge 0 multiplicity 1
 C        -0.266373        -0.171467         0.240827
 C         1.295623        -0.467807         0.448048
 O         2.283365        -0.148922        -0.601934
 C         3.091472        -0.875536         0.430529
 C         1.937870        -1.970577         0.606837
 C         1.791022        -2.556000         2.040691
 C         2.562222        -1.721249         2.989590
 O         2.280036        -0.306666         2.830957
 C         2.378424         0.008068         1.488186
 H        -0.827424        -0.181300         1.227242
 H        -0.290892         0.809265        -0.314287
 H        -0.591244        -1.072600        -0.372550
 H         4.104591        -1.023713         0.265210
 H         1.733923        -2.754373        -0.178655
 H         0.746331        -2.422534         2.472715
 H         2.156896        -3.628079         2.024124
 H         2.154815        -1.811086         3.995203
 H         3.635377        -1.828748         3.083795
 H         2.616575         1.049344         1.381706
