19
Iteration:   517
 C        -0.097732        -0.010668         0.334119
 C         1.334182        -0.561910         0.402569
 O         2.166016        -0.283561        -0.722714
 C         3.087550        -0.900097         0.443074
 C         1.938104        -1.993878         0.698855
 C         1.864766        -2.633197         2.025605
 C         2.460387        -1.627781         3.042587
 O         2.283900        -0.254258         2.811978
 C         2.316276         0.040172         1.436361
 H        -0.478325        -0.413401         1.322843
 H        -0.133601         1.101837         0.529615
 H        -0.767434        -0.435838        -0.457984
 H         4.191818        -1.160499         0.131215
 H         1.670018        -2.674123        -0.135270
 H         0.847846        -2.879164         2.316077
 H         2.592993        -3.535109         2.097479
 H         2.041414        -1.727912         4.030988
 H         3.543778        -1.805759         3.194612
 H         2.382066         1.170568         1.123435
