19
Iteration:   958
 C        -0.136595        -0.262441         0.180509
 C         1.267573        -0.408152         0.451382
 O         2.252446        -0.196617        -0.621483
 C         2.999109        -0.928581         0.462917
 C         1.799332        -1.850137         0.647859
 C         1.744751        -2.615002         2.047840
 C         2.669132        -1.667737         3.121437
 O         2.311760        -0.275963         2.787525
 C         2.421754        -0.005272         1.444693
 H        -0.556076        -0.824748         0.964491
 H        -0.588537         0.706027         0.416911
 H        -0.253456        -0.728365        -0.786151
 H         3.974309        -1.021839         0.083630
 H         1.419872        -2.355713        -0.283053
 H         0.713765        -2.550223         2.553936
 H         2.116147        -3.575090         1.848302
 H         2.393464        -1.637993         4.195538
 H         3.698960        -1.858472         2.951915
 H         2.808044         1.046807         1.304938
