19
Iteration:  4074
 C        -0.127891        -0.398264         0.288582
 C         1.321147        -0.602669         0.464087
 O         2.147768        -0.164545        -0.604785
 C         3.077947        -0.840361         0.319578
 C         1.963966        -2.006465         0.626369
 C         1.649817        -2.469237         2.012249
 C         2.459600        -1.614521         3.090514
 O         2.472447        -0.151255         2.808750
 C         2.396074         0.008853         1.468857
 H        -0.604201        -0.922301         1.121940
 H        -0.336771         0.623361         0.184761
 H        -0.378013        -0.745545        -0.690144
 H         4.118920        -0.938791         0.221201
 H         1.723293        -2.635615        -0.225398
 H         0.666829        -2.286213         2.453285
 H         2.070108        -3.490229         1.936906
 H         1.830055        -1.719850         3.975301
 H         3.507565        -2.088377         3.529528
 H         2.530353         1.123898         1.170675
