19
Iteration:  3473
 C        -0.146280        -0.192277         0.426656
 C         1.264736        -0.508054         0.439778
 O         2.262805        -0.231060        -0.723251
 C         3.099648        -0.853731         0.314220
 C         2.038689        -1.867115         0.665951
 C         1.865108        -2.578341         2.038670
 C         2.408563        -1.674351         3.114988
 O         2.176976        -0.356207         2.750123
 C         2.402625         0.094768         1.454612
 H        -0.396616        -0.329882         1.443071
 H        -0.307254         0.822654         0.117460
 H        -0.631258        -0.878054        -0.302176
 H         4.116239        -1.125457         0.208435
 H         1.874919        -2.474073        -0.267078
 H         0.870873        -2.943913         2.205668
 H         2.418861        -3.591891         2.095569
 H         1.719266        -1.760877         4.008531
 H         3.521503        -1.846726         3.266060
 H         2.512713         1.263721         1.513387
