19
Iteration:   147charge 0 multiplicity 1
 C        -0.201091        -0.156258         0.295697
 C         1.266497        -0.405967         0.586029
 O         2.341337        -0.311707        -0.658604
 C         3.004633        -1.026225         0.396261
 C         1.819253        -1.907718         0.622337
 C         1.845702        -2.538357         1.982012
 C         2.504926        -1.624112         3.006070
 O         2.297244        -0.224450         2.837244
 C         2.457414         0.058025         1.419915
 H        -0.648844        -0.718749         1.210837
 H        -0.438307         0.904422         0.414994
 H        -0.624915        -0.869285        -0.436542
 H         4.083271        -1.332295         0.280714
 H         1.710947        -2.682758        -0.228143
 H         0.745381        -2.667104         2.174409
 H         2.191451        -3.517623         1.995235
 H         2.174155        -1.942783         3.978097
 H         3.534339        -1.749814         2.970605
 H         2.625410         1.156527         1.266031
