19
Iteration:  1922
 C        -0.197855        -0.064657         0.280425
 C         1.194827        -0.680723         0.458727
 O         2.307907        -0.209859        -0.666223
 C         3.031523        -0.817824         0.408813
 C         2.032543        -1.988224         0.637834
 C         1.775691        -2.545140         2.060524
 C         2.588976        -1.717356         3.035904
 O         2.292428        -0.324097         2.824769
 C         2.244286         0.057850         1.449426
 H        -0.717814         0.025948         1.249028
 H         0.220185         0.916285         0.074237
 H        -0.814899        -0.450401        -0.551577
 H         4.125239        -1.067134         0.353468
 H         2.055717        -2.674394        -0.184280
 H         0.799969        -2.430470         2.253649
 H         2.175896        -3.511881         2.108911
 H         2.435880        -1.785546         4.037034
 H         3.648233        -1.747375         2.999963
 H         2.357384         1.123044         1.326712
