19
Iteration:  1832
 C        -0.176218        -0.124217         0.304371
 C         1.310117        -0.614228         0.493170
 O         2.201953        -0.248069        -0.666280
 C         3.076516        -0.770171         0.373074
 C         2.050705        -2.006868         0.566961
 C         1.759118        -2.585004         2.036999
 C         2.427393        -1.651215         3.078709
 O         2.353536        -0.239016         2.864291
 C         2.337470         0.025045         1.428888
 H        -0.783906        -0.442704         1.189916
 H        -0.033515         1.001569         0.296136
 H        -0.584112        -0.688328        -0.635455
 H         4.184779        -0.743293         0.157457
 H         1.836607        -2.679602        -0.276745
 H         0.697962        -2.636167         2.231686
 H         2.251281        -3.565983         2.197231
 H         2.093630        -2.021430         4.091888
 H         3.519243        -2.095191         3.003109
 H         2.444026         1.174701         1.375124
