19
Iteration:  3357charge 0 multiplicity 1
 C        -0.224404        -0.375638         0.200497
 C         1.248491        -0.565624         0.427665
 O         2.335496        -0.063412        -0.579771
 C         3.002576        -0.810621         0.438626
 C         1.919332        -1.908776         0.581819
 C         1.702473        -2.516061         2.051542
 C         2.556692        -1.682823         3.080143
 O         2.449364        -0.304583         2.816728
 C         2.331977         0.049549         1.511303
 H        -0.867658        -0.605362         1.103121
 H        -0.548691         0.624914        -0.168989
 H        -0.452300        -0.935640        -0.754657
 H         4.108338        -1.003043         0.380364
 H         1.695867        -2.594670        -0.228359
 H         0.641866        -2.736515         2.352236
 H         2.106021        -3.550646         1.955172
 H         2.200054        -1.905296         4.122802
 H         3.571765        -2.006517         2.740666
 H         2.484598         1.119051         1.397495
