19
Iteration:   353
 C        -0.092714        -0.158532         0.266879
 C         1.334564        -0.424828         0.558494
 O         2.285855        -0.248176        -0.664445
 C         2.999720        -1.002192         0.330360
 C         1.740787        -1.912021         0.657265
 C         1.844772        -2.685776         2.081019
 C         2.528863        -1.628565         3.059594
 O         2.276868        -0.161779         2.803424
 C         2.377102         0.033938         1.446403
 H        -0.617049        -0.836896         0.990569
 H        -0.388418         0.843178         0.526190
 H        -0.266136        -0.480159        -0.761285
 H         4.101807        -1.251947         0.115485
 H         1.449244        -2.627785        -0.131772
 H         0.805884        -2.893354         2.392003
 H         2.418675        -3.660606         1.675939
 H         2.268857        -1.733516         4.095139
 H         3.707844        -1.802561         2.917374
 H         2.650196         1.134451         1.343513
