19
Iteration:  2908charge 0 multiplicity 1
 C        -0.169501        -0.098407         0.358986
 C         1.324703        -0.502704         0.392727
 O         2.222343        -0.208143        -0.717098
 C         3.114565        -0.837775         0.351038
 C         2.107650        -1.938035         0.617879
 C         1.890088        -2.602182         2.059117
 C         2.480216        -1.678933         3.067247
 O         2.082011        -0.362285         2.901164
 C         2.353114         0.041048         1.450620
 H        -0.487138        -0.253136         1.397441
 H        -0.400360         1.000758         0.161746
 H        -0.849660        -0.569823        -0.473460
 H         4.111865        -0.904676        -0.009630
 H         1.900936        -2.609181        -0.170016
 H         0.849941        -2.800586         2.394037
 H         2.315209        -3.625463         1.971511
 H         2.228127        -2.246224         3.984867
 H         3.659421        -1.833766         3.075300
 H         2.521710         1.161789         1.335879
