19
Iteration:  4980charge 0 multiplicity 1
 C        -0.198525        -0.304195         0.175072
 C         1.285310        -0.476079         0.468775
 O         2.216091        -0.213846        -0.609225
 C         3.073014        -0.805014         0.360812
 C         2.001730        -1.861367         0.640077
 C         1.742495        -2.565561         1.999978
 C         2.539402        -1.798924         3.034581
 O         2.351512        -0.270555         2.939971
 C         2.364292         0.141963         1.492361
 H        -0.674735         0.479561         0.763410
 H        -0.501017         0.014561        -0.886405
 H        -0.723502        -1.252273         0.412850
 H         4.108355        -1.013450         0.087934
 H         1.681970        -2.434521        -0.199182
 H         0.714142        -2.708740         2.081050
 H         2.098015        -3.629281         2.108933
 H         2.141724        -1.920279         4.054231
 H         3.622313        -2.167594         2.941999
 H         2.696938         1.208041         1.475461
