19
Iteration:  3414charge 0 multiplicity 1
 C        -0.221790        -0.065021         0.188674
 C         1.217510        -0.593304         0.428791
 O         2.343984        -0.208000        -0.645308
 C         3.035529        -0.818803         0.429988
 C         1.925305        -1.941842         0.660896
 C         1.878279        -2.638079         2.097366
 C         2.672637        -1.736480         3.027524
 O         2.241244        -0.275234         2.835614
 C         2.227091         0.033301         1.429324
 H        -1.010912        -0.664423         0.735208
 H        -0.283342         1.016505         0.417478
 H        -0.580780        -0.300314        -0.793619
 H         4.152841        -0.883874         0.566238
 H         1.569858        -2.624478        -0.115320
 H         0.999536        -2.646243         2.624096
 H         2.468193        -3.589058         1.990061
 H         2.425142        -1.908458         4.017000
 H         3.734189        -1.814070         3.105750
 H         2.281454         1.056886         1.439396
