19
Iteration:  3707
 C        -0.172588        -0.383290         0.318772
 C         1.303428        -0.483548         0.431236
 O         2.264054        -0.253496        -0.717547
 C         3.092306        -0.735140         0.378697
 C         1.978722        -1.853245         0.659425
 C         1.671068        -2.475117         2.044310
 C         2.464297        -1.761572         3.070960
 O         2.400316        -0.285570         2.833447
 C         2.395931         0.106405         1.452753
 H        -0.608523        -0.842168         1.270413
 H        -0.568091         0.660667         0.315656
 H        -0.493016        -0.871849        -0.610673
 H         4.210625        -0.938500         0.153018
 H         1.792536        -2.637347        -0.066566
 H         0.492779        -2.485094         2.337501
 H         1.757362        -3.674966         2.139870
 H         2.023768        -1.816418         4.121188
 H         3.469646        -2.157592         2.933899
 H         2.439494         1.210013         1.457838
