19
Iteration:  4522
 C        -0.187179        -0.111203         0.313850
 C         1.249024        -0.510491         0.469112
 O         2.315311        -0.307268        -0.683653
 C         3.030255        -0.900560         0.379584
 C         1.866727        -1.977929         0.667059
 C         1.923481        -2.620161         2.078767
 C         2.639467        -1.607213         3.121827
 O         2.114142        -0.280825         2.742253
 C         2.400008         0.094169         1.437298
 H        -0.670585        -0.225417         1.326409
 H        -0.194467         0.948910        -0.056648
 H        -0.765105        -0.697987        -0.437914
 H         4.065147        -1.040077         0.093017
 H         1.610679        -2.547159        -0.241251
 H         0.908804        -2.922885         2.491044
 H         2.537473        -3.477592         1.965648
 H         2.317434        -1.833594         4.160953
 H         3.719468        -1.642112         2.981389
 H         2.469063         1.233416         1.352264
