19
Iteration:  2365
 C        -0.133475        -0.167638         0.295503
 C         1.350530        -0.382918         0.461500
 O         2.271179        -0.170290        -0.674401
 C         3.053657        -0.992855         0.352777
 C         1.876942        -1.903482         0.647762
 C         1.862766        -2.576618         2.037811
 C         2.506310        -1.674174         3.080493
 O         2.218536        -0.320496         2.813394
 C         2.366368         0.031656         1.490201
 H        -0.660590        -0.747601         1.089137
 H        -0.675144         0.811712         0.307268
 H        -0.541648        -0.770633        -0.586139
 H         4.080732        -1.087444        -0.049952
 H         1.753440        -2.627065        -0.229274
 H         0.726049        -2.890653         2.254961
 H         2.479987        -3.485877         2.018871
 H         2.049867        -1.921250         4.084767
 H         3.574407        -1.761403         3.137253
 H         2.715204         1.120084         1.540790
