19
Iteration:  1973
 C        -0.240825        -0.310556         0.237687
 C         1.321070        -0.403023         0.556232
 O         2.249979        -0.204883        -0.607831
 C         3.133551        -0.926024         0.321239
 C         1.859398        -1.839212         0.676872
 C         1.763286        -2.518891         1.980962
 C         2.487284        -1.739748         3.047811
 O         2.325692        -0.251391         2.883968
 C         2.477818         0.016784         1.447424
 H        -0.830191        -0.692951         1.087242
 H        -0.562568         0.673944        -0.132003
 H        -0.298920        -1.021891        -0.654107
 H         4.145804        -1.161238        -0.061055
 H         1.415606        -2.405612        -0.136126
 H         0.543144        -2.642564         2.249019
 H         2.259433        -3.511673         1.875956
 H         2.198655        -1.871956         4.137641
 H         3.595450        -1.737382         2.989379
 H         2.642859         1.114480         1.200427
