19
Iteration:   235charge 0 multiplicity 1
 C        -0.127890        -0.217289         0.279027
 C         1.322810        -0.409233         0.487767
 O         2.324114        -0.225696        -0.591111
 C         3.043279        -0.958913         0.372650
 C         1.664176        -1.899624         0.580874
 C         1.806560        -2.638180         2.065761
 C         2.525361        -1.661748         3.038430
 O         2.283843        -0.252505         2.799153
 C         2.447646         0.051566         1.488735
 H        -0.735740         0.244969         1.089162
 H        -0.257318         0.500763        -0.576842
 H        -0.721997        -1.202874         0.021272
 H         4.174309        -1.056138         0.034658
 H         1.284073        -2.574117        -0.315486
 H         0.906242        -2.947520         2.622977
 H         2.503719        -3.401197         1.942450
 H         2.388965        -1.679885         4.177804
 H         3.790419        -1.806587         2.871163
 H         2.689750         1.165723         1.233680
