19
Iteration:  1099charge 0 multiplicity 1
 C        -0.133229        -0.209329         0.342807
 C         1.244026        -0.642960         0.376294
 O         2.265310        -0.284820        -0.716911
 C         3.014893        -0.792611         0.422904
 C         2.026100        -1.920328         0.631183
 C         1.756660        -2.496757         1.997970
 C         2.491182        -1.716404         3.101997
 O         2.393402        -0.273200         2.846472
 C         2.305567         0.070607         1.491132
 H        -0.400323         0.151620         1.324811
 H        -0.098667         0.837052        -0.075696
 H        -0.945258        -0.761096        -0.147020
 H         4.057001        -0.908838         0.195583
 H         1.913203        -2.588627        -0.244486
 H         0.640851        -2.357241         2.043757
 H         2.002780        -3.533046         1.994555
 H         2.119825        -1.850472         4.168456
 H         3.459461        -1.964782         3.066560
 H         2.190778         1.180040         1.411863
