19
Iteration:  3935charge 0 multiplicity 1
 C        -0.160845        -0.212041         0.211125
 C         1.244071        -0.485788         0.526450
 O         2.200939        -0.343469        -0.630139
 C         2.985340        -0.876005         0.428099
 C         1.982056        -1.910363         0.668462
 C         1.887883        -2.580971         2.021263
 C         2.545438        -1.636212         3.052920
 O         2.336441        -0.236546         2.822239
 C         2.321427         0.081645         1.440657
 H        -1.048048        -0.587801         0.835385
 H        -0.300814         0.852361        -0.077609
 H        -0.320027        -0.481467        -0.860092
 H         4.023307        -1.160510         0.224831
 H         1.668039        -2.596345        -0.134781
 H         0.842031        -2.621293         2.391801
 H         2.302149        -3.547304         2.121141
 H         2.285532        -1.859285         4.165558
 H         3.698425        -1.657280         2.968123
 H         2.521329         1.163497         1.293771
