19
Iteration:  4898
 C        -0.111952        -0.125811         0.292640
 C         1.332957        -0.470162         0.478943
 O         2.231207        -0.275736        -0.659325
 C         3.075934        -0.881172         0.472629
 C         1.884171        -1.877857         0.725114
 C         1.924667        -2.626097         2.030651
 C         2.546931        -1.696246         2.965233
 O         2.185744        -0.262035         2.789222
 C         2.311330         0.076097         1.473042
 H        -0.689318        -0.644572         1.090977
 H        -0.333893         0.878753         0.079811
 H        -0.443701        -0.675485        -0.598904
 H         4.079427        -1.179702         0.117933
 H         1.519497        -2.617413        -0.074175
 H         0.791843        -2.884281         2.233569
 H         2.592623        -3.446670         1.749207
 H         2.132360        -1.921638         3.944061
 H         3.636951        -2.039249         3.058295
 H         2.407053         1.143996         1.250910
