19
Iteration:   955charge 0 multiplicity 1
 C        -0.111457        -0.274247         0.197154
 C         1.252012        -0.406798         0.445978
 O         2.271598        -0.179983        -0.629589
 C         2.993780        -0.920632         0.453055
 C         1.775182        -1.845341         0.658101
 C         1.737510        -2.615375         2.063191
 C         2.650961        -1.678646         3.095818
 O         2.321842        -0.270073         2.786911
 C         2.430281        -0.006276         1.453342
 H        -0.552808        -0.895869         0.979451
 H        -0.548570         0.721495         0.308762
 H        -0.305592        -0.759257        -0.767100
 H         4.012888        -1.016403         0.093616
 H         1.416583        -2.366084        -0.220418
 H         0.701209        -2.616651         2.607846
 H         2.164273        -3.620320         1.912240
 H         2.284148        -1.681407         4.182236
 H         3.864466        -1.851217         2.933321
 H         2.664214         1.047669         1.239741
