19
Iteration:  1140
 C        -0.159131        -0.218229         0.199272
 C         1.207523        -0.537454         0.553221
 O         2.340327        -0.217521        -0.584515
 C         3.005781        -0.901860         0.334720
 C         1.855927        -1.885110         0.630196
 C         1.793005        -2.538793         2.072963
 C         2.593009        -1.703527         3.091141
 O         2.327895        -0.277554         2.803769
 C         2.319485         0.097201         1.429085
 H        -0.835316        -0.657226         0.966523
 H        -0.348196         0.905616         0.029940
 H        -0.442113        -0.822047        -0.710597
 H         4.045365        -1.190943         0.069828
 H         1.634229        -2.489641        -0.238185
 H         0.801013        -2.622361         2.427220
 H         2.243589        -3.585369         2.063559
 H         2.342296        -1.874897         4.212924
 H         3.781979        -1.852158         2.825713
 H         2.633506         1.156052         1.307481
