19
Iteration:  3446charge 0 multiplicity 1
 C        -0.111086        -0.088189         0.358127
 C         1.258090        -0.577359         0.432506
 O         2.187098        -0.274355        -0.663800
 C         3.133868        -0.907139         0.424330
 C         1.966765        -1.975682         0.613524
 C         1.940392        -2.589034         1.977900
 C         2.522828        -1.652817         2.993368
 O         2.057594        -0.227018         2.850256
 C         2.392255         0.058091         1.485417
 H        -0.650732        -0.541230         1.254144
 H        -0.097968         1.030708         0.393109
 H        -0.482139        -0.295243        -0.643495
 H         4.266888        -1.008531         0.317111
 H         1.767598        -2.574364        -0.271814
 H         0.997011        -3.033680         2.317647
 H         2.497901        -3.498519         2.085178
 H         2.218203        -1.916827         3.985415
 H         3.570275        -1.616566         2.960338
 H         2.682903         1.049821         1.380372
