19
Iteration:  4855
 C        -0.140216        -0.012800         0.393500
 C         1.296568        -0.587443         0.485059
 O         2.197853        -0.254617        -0.688019
 C         3.121593        -0.948204         0.297115
 C         2.044910        -1.977902         0.582372
 C         1.965722        -2.590990         1.972673
 C         2.416448        -1.625854         3.120777
 O         2.201359        -0.253131         2.827372
 C         2.244268         0.000512         1.443506
 H        -0.962625        -0.708016         0.790801
 H        -0.171414         0.962842         0.870610
 H        -0.478140         0.078066        -0.667317
 H         4.245524        -1.046451         0.201369
 H         1.975424        -2.730392        -0.290345
 H         0.913037        -2.728738         2.488041
 H         2.531706        -3.529529         2.086885
 H         2.049212        -1.988025         4.062565
 H         3.617821        -1.562876         3.401154
 H         2.429563         1.075630         1.464791
