19
Iteration:   175charge 0 multiplicity 1
 C        -0.062311        -0.058404         0.309894
 C         1.285079        -0.626066         0.463361
 O         2.186300        -0.225871        -0.716834
 C         3.086264        -0.843441         0.376528
 C         1.990224        -1.928881         0.624973
 C         1.723767        -2.595529         2.143922
 C         2.525391        -1.703191         3.144423
 O         2.315259        -0.297893         2.783906
 C         2.279888         0.037627         1.379684
 H        -0.446434         0.144171         1.310668
 H         0.151899         0.955803        -0.094055
 H        -0.823788        -0.576804        -0.231711
 H         4.118132        -1.004797         0.115411
 H         2.005985        -2.685307        -0.113994
 H         0.632983        -2.675906         2.252144
 H         2.055378        -3.723945         2.126371
 H         2.425072        -1.814947         4.239176
 H         3.641418        -1.938987         2.853561
 H         2.206611         1.101977         1.337314
