19
Iteration:  3289charge 0 multiplicity 1
 C        -0.136008        -0.136260         0.419751
 C         1.297654        -0.494616         0.464070
 O         2.244359        -0.190082        -0.661539
 C         3.073355        -0.881087         0.463096
 C         2.016447        -1.973642         0.577744
 C         1.948271        -2.665641         1.954953
 C         2.469140        -1.697683         3.058592
 O         2.105608        -0.256654         2.756293
 C         2.358235         0.038823         1.431289
 H        -0.419094        -0.194252         1.469862
 H        -0.319602         0.951665         0.243452
 H        -0.888280        -0.698752        -0.239876
 H         4.072297        -1.000021         0.108646
 H         1.924222        -2.624319        -0.292168
 H         0.881328        -3.012745         2.283819
 H         2.569884        -3.471720         2.072210
 H         1.909982        -1.732667         4.057155
 H         3.661663        -1.701216         3.177837
 H         2.612317         1.141490         1.347909
