19
Iteration:  3853charge 0 multiplicity 1
 C        -0.181334        -0.295460         0.316723
 C         1.312984        -0.466562         0.508530
 O         2.251535        -0.228894        -0.688459
 C         3.090677        -0.841760         0.366772
 C         1.999902        -1.971503         0.695783
 C         1.734752        -2.566639         2.066201
 C         2.448669        -1.648712         3.038753
 O         2.316216        -0.235217         2.801903
 C         2.400433         0.108177         1.393398
 H        -0.680589        -0.743947         1.190977
 H        -0.483822         0.760292         0.528338
 H        -0.580837        -0.861224        -0.566534
 H         4.141737        -1.074097         0.067930
 H         1.787181        -2.695256        -0.124171
 H         0.591625        -2.728581         2.369734
 H         2.209800        -3.675334         2.155982
 H         2.101291        -1.928959         3.993430
 H         3.482974        -1.816001         2.895235
 H         2.611976         1.175339         1.222663
