19
Iteration:  4699
 C        -0.082077        -0.031486         0.351156
 C         1.222369        -0.569887         0.485581
 O         2.221791        -0.258380        -0.604201
 C         3.062567        -0.941208         0.377560
 C         1.948761        -1.913297         0.658755
 C         2.004006        -2.572695         1.981656
 C         2.505100        -1.594899         3.042834
 O         2.110276        -0.305354         2.770779
 C         2.335801        -0.026664         1.446622
 H        -0.492729         0.369283         1.250165
 H        -0.035368         0.848273        -0.329794
 H        -0.747833        -0.806507        -0.030984
 H         4.040007        -1.012197         0.084825
 H         1.854147        -2.652549        -0.173430
 H         1.037227        -3.236084         2.241478
 H         2.726482        -3.344821         2.059092
 H         2.224596        -1.786443         4.109324
 H         3.606599        -1.793146         3.007880
 H         2.439965         1.022594         1.172023
