19
Iteration:   621
 C        -0.185452        -0.114848         0.243257
 C         1.274312        -0.523002         0.356390
 O         2.175833        -0.247509        -0.686406
 C         3.080564        -0.869672         0.404780
 C         1.893792        -1.905192         0.628881
 C         1.801359        -2.568858         2.082221
 C         2.530078        -1.663408         3.078590
 O         2.419096        -0.276061         2.863090
 C         2.369002        -0.039751         1.497623
 H        -0.684483        -0.368403         1.160276
 H        -0.385536         0.852344        -0.178219
 H        -0.587617        -0.745242        -0.534819
 H         4.153631        -0.840028         0.459089
 H         1.755356        -2.626112        -0.186142
 H         0.700240        -2.538977         2.438728
 H         1.986960        -3.682954         2.235610
 H         2.232555        -1.799136         4.130551
 H         3.589179        -1.889366         2.984244
 H         2.495232         1.020985         1.345507
