19
Iteration:  2160
 C        -0.147041        -0.292704         0.297121
 C         1.318805        -0.481327         0.436839
 O         2.283310        -0.142264        -0.626535
 C         3.050952        -0.944577         0.473629
 C         1.868148        -1.864577         0.596956
 C         1.751450        -2.569978         2.035482
 C         2.506018        -1.733000         3.052152
 O         2.377784        -0.242616         2.852152
 C         2.330191         0.090298         1.431368
 H        -0.634315        -0.649342         1.208218
 H        -0.472193         0.729438         0.044419
 H        -0.568408        -0.887217        -0.536044
 H         4.090932        -1.368113         0.200391
 H         1.718013        -2.523019        -0.244235
 H         0.754605        -2.514815         2.238720
 H         2.105624        -3.580174         1.628147
 H         2.127547        -1.897467         4.080460
 H         3.583040        -1.998436         2.842047
 H         2.514838         1.195067         1.237001
