19
Iteration:  3174charge 0 multiplicity 1
 C        -0.232715        -0.370711         0.186826
 C         1.241328        -0.499129         0.501470
 O         2.319846        -0.147486        -0.540790
 C         3.037598        -0.826699         0.495365
 C         1.909829        -1.863262         0.671117
 C         1.731505        -2.546397         1.980366
 C         2.554659        -1.735613         2.989695
 O         2.365481        -0.292046         2.803371
 C         2.378078         0.091863         1.469615
 H        -0.722033        -0.699079         1.148079
 H        -0.490543         0.690585         0.072394
 H        -0.418766        -0.977322        -0.676393
 H         4.078548        -0.958180         0.096219
 H         1.778053        -2.481358        -0.248363
 H         0.643656        -2.362364         2.031277
 H         2.005438        -3.636770         1.982475
 H         2.311518        -1.942148         3.984397
 H         3.818649        -1.939509         2.702460
 H         2.524499         1.132427         1.366490
