19
Iteration:  1397
 C        -0.177506        -0.081227         0.302710
 C         1.260221        -0.548452         0.487033
 O         2.219594        -0.306136        -0.694015
 C         3.109824        -0.880569         0.482877
 C         1.968071        -1.997929         0.626169
 C         1.860682        -2.534874         2.043799
 C         2.554531        -1.659259         3.060608
 O         2.286537        -0.273047         2.810134
 C         2.293736         0.039050         1.408451
 H        -0.995479        -0.444988         0.937355
 H        -0.315223         0.996417         0.494386
 H        -0.425184        -0.183903        -0.791215
 H         4.172233        -0.972120         0.229628
 H         1.811645        -2.684280        -0.245340
 H         0.809259        -2.589932         2.300227
 H         2.210676        -3.512334         2.165653
 H         2.067351        -1.868007         4.003987
 H         3.748247        -1.815472         3.152091
 H         2.319554         1.084641         1.140615
