19
Iteration:  3331charge 0 multiplicity 1
 C        -0.208965        -0.277238         0.353572
 C         1.271693        -0.567028         0.361007
 O         2.229905        -0.216996        -0.669001
 C         3.087085        -0.792276         0.456274
 C         2.029440        -1.900147         0.567699
 C         1.813078        -2.522128         1.948010
 C         2.496940        -1.704534         3.098688
 O         2.325160        -0.312153         2.874390
 C         2.363989         0.097963         1.495346
 H        -0.623939        -0.359181         1.332119
 H        -0.463835         0.699407        -0.074539
 H        -0.668634        -0.909646        -0.422563
 H         4.142505        -0.893135         0.301912
 H         1.963907        -2.580055        -0.312588
 H         0.708879        -2.425952         2.157859
 H         1.859664        -3.562793         1.953473
 H         1.906768        -1.993978         3.984757
 H         3.458639        -1.960144         3.138015
 H         2.536578         1.226663         1.473575
