19
Iteration:   227charge 0 multiplicity 1
 C        -0.133496        -0.146854         0.273221
 C         1.302081        -0.438973         0.524621
 O         2.304140        -0.226117        -0.628333
 C         3.016049        -0.954069         0.458614
 C         1.756757        -1.949478         0.664812
 C         1.838719        -2.623193         2.050751
 C         2.521574        -1.677251         2.979194
 O         2.313720        -0.231535         2.784560
 C         2.385915         0.080701         1.444197
 H        -0.624419         0.331906         1.093978
 H        -0.270424         0.439301        -0.653508
 H        -0.641993        -1.121458        -0.024977
 H         3.980264        -1.131853        -0.014385
 H         1.416723        -2.610897        -0.139155
 H         0.836645        -3.035429         2.416285
 H         2.488165        -3.487126         2.012192
 H         2.197600        -2.035694         3.988087
 H         3.568487        -1.791217         2.881047
 H         2.846748         1.069812         1.384669
