19
Iteration:  1108charge 0 multiplicity 1
 C        -0.132916        -0.169144         0.274203
 C         1.276115        -0.684446         0.340214
 O         2.130265        -0.276329        -0.657738
 C         3.065820        -0.795060         0.502820
 C         2.025692        -1.915429         0.597326
 C         1.711999        -2.453269         2.012431
 C         2.503614        -1.731492         3.095386
 O         2.377826        -0.291838         2.860471
 C         2.354824         0.106821         1.444589
 H        -0.323207        -0.178933         1.390355
 H        -0.059336         0.886424        -0.196872
 H        -0.913713        -0.786784        -0.270404
 H         4.108118        -0.829013         0.171615
 H         2.203527        -2.619615        -0.203351
 H         0.690265        -2.504980         2.297712
 H         2.007686        -3.515392         2.109866
 H         2.225439        -2.071986         4.180730
 H         3.593645        -1.978007         3.036103
 H         2.607048         1.180325         1.220795
