19
Iteration:  2033
 C        -0.156291        -0.043420         0.354473
 C         1.254498        -0.557696         0.442458
 O         2.198254        -0.312526        -0.711372
 C         3.096349        -0.813175         0.443125
 C         2.069625        -1.986846         0.647316
 C         1.857195        -2.617623         2.062528
 C         2.477149        -1.685547         3.001459
 O         2.225575        -0.264080         2.813877
 C         2.343256         0.079287         1.443898
 H        -0.789175        -0.277752         1.293545
 H         0.006588         1.089650         0.436205
 H        -0.661331        -0.342845        -0.588233
 H         4.190364        -0.952792         0.271729
 H         2.044205        -2.680390        -0.251404
 H         0.626077        -2.640813         2.007547
 H         2.159115        -3.716159         2.108197
 H         2.252282        -2.144698         3.966051
 H         3.544496        -1.983912         3.003044
 H         2.476248         1.163157         1.552112
