19
Iteration:   835
 C        -0.207147        -0.113328         0.333227
 C         1.285844        -0.471632         0.436978
 O         2.293963        -0.195830        -0.686619
 C         3.066775        -0.950820         0.365194
 C         1.888773        -2.035287         0.693911
 C         1.867098        -2.620639         2.072201
 C         2.515424        -1.642869         3.069271
 O         2.217807        -0.251839         2.815522
 C         2.431105         0.055455         1.404652
 H        -0.716510        -0.297117         1.258716
 H        -0.281179         0.931284         0.026899
 H        -0.843380        -0.615702        -0.445084
 H         4.122563        -0.972314         0.120776
 H         1.467828        -2.576733        -0.154633
 H         0.847729        -3.144673         2.300369
 H         2.514591        -3.460892         2.116776
 H         2.212424        -1.877733         4.120409
 H         3.634210        -1.800891         2.953872
 H         2.613720         1.117817         1.317894
