19
Iteration:  3377
 C        -0.178903        -0.317434         0.054032
 C         1.266698        -0.492906         0.615625
 O         2.181715        -0.184806        -0.584050
 C         3.076545        -0.816139         0.437696
 C         1.920874        -1.898916         0.674408
 C         1.763749        -2.541993         2.032017
 C         2.618773        -1.729073         2.958883
 O         2.362793        -0.288826         2.881272
 C         2.369077         0.084896         1.518379
 H        -0.849453        -0.719713         0.802871
 H        -0.498559         0.731436        -0.114738
 H        -0.182477        -0.760270        -0.985334
 H         4.130937        -0.938001         0.166004
 H         1.658854        -2.452718        -0.235102
 H         0.669351        -2.570689         2.343089
 H         1.906948        -3.552756         1.993930
 H         2.215442        -2.097807         3.970029
 H         3.620763        -1.883598         2.794663
 H         2.512294         1.154305         1.214438
