19
Iteration:  4950charge 0 multiplicity 1
 C        -0.167162        -0.307440         0.148137
 C         1.231887        -0.659510         0.419690
 O         2.247979        -0.136519        -0.549712
 C         3.041088        -0.768879         0.460652
 C         2.005000        -1.850373         0.596469
 C         1.666687        -2.415779         2.067735
 C         2.644067        -1.743965         3.038645
 O         2.436265        -0.331587         2.785808
 C         2.248337         0.028722         1.501696
 H        -0.476880         0.303723         1.038601
 H        -0.261367         0.419482        -0.692993
 H        -0.878115        -1.154490         0.029269
 H         4.098326        -0.946170         0.440298
 H         1.829602        -2.580743        -0.230209
 H         0.538739        -2.534871         2.199202
 H         1.886991        -3.513205         2.220048
 H         2.204835        -2.016894         4.173037
 H         3.569047        -2.229740         2.980289
 H         2.443762         1.142808         1.453917
