19
Iteration:    99
 C        -0.172744        -0.105393         0.310156
 C         1.284409        -0.558227         0.495600
 O         2.180704        -0.290095        -0.641024
 C         3.066719        -0.928114         0.392469
 C         2.020549        -1.953566         0.630280
 C         1.716064        -2.545249         2.077691
 C         2.515536        -1.660451         3.090822
 O         2.378947        -0.243414         2.761154
 C         2.373424         0.058910         1.416665
 H        -0.976441        -0.796669         0.500765
 H        -0.298353         0.859235         0.803905
 H        -0.217354         0.004479        -0.771384
 H         4.068596        -1.208959         0.112655
 H         1.852846        -2.595116        -0.207286
 H         0.698156        -2.410455         2.131381
 H         1.841103        -3.664005         2.178740
 H         2.063208        -1.736740         4.096801
 H         3.620756        -1.901109         3.213212
 H         2.682708         1.077916         1.240704
