19
Iteration:  1496charge 0 multiplicity 1
 C        -0.159662        -0.146949         0.311066
 C         1.265810        -0.561484         0.469156
 O         2.210887        -0.274758        -0.630270
 C         3.074940        -0.858471         0.449588
 C         1.974357        -1.936672         0.648437
 C         1.801759        -2.534761         2.055253
 C         2.550963        -1.683472         3.052501
 O         2.266278        -0.310996         2.751998
 C         2.365333         0.094281         1.427520
 H        -0.701101         0.113186         1.230139
 H        -0.299348         0.798498        -0.275254
 H        -0.599890        -0.944209        -0.360924
 H         4.156001        -1.088753         0.207924
 H         1.936048        -2.632017        -0.248706
 H         0.747818        -2.607005         2.260014
 H         2.223782        -3.508005         1.994739
 H         2.145827        -1.851816         4.026069
 H         3.639163        -1.774267         3.158080
 H         2.567609         1.182936         1.283953
