19
Iteration:   461charge 0 multiplicity 1
 C        -0.107337        -0.208230         0.373850
 C         1.313125        -0.465946         0.416793
 O         2.325272        -0.246704        -0.677917
 C         3.012718        -0.907036         0.441379
 C         1.809094        -1.886516         0.617200
 C         1.810783        -2.536505         2.046220
 C         2.475900        -1.652132         3.059850
 O         2.316240        -0.244300         2.806883
 C         2.361931        -0.018112         1.439768
 H        -0.437345         0.129378         1.402608
 H        -0.492339         0.443987        -0.418009
 H        -0.745485        -1.025111        -0.016773
 H         4.061774        -1.239311         0.045131
 H         1.527872        -2.536660        -0.221797
 H         0.881826        -3.010321         2.311198
 H         2.360766        -3.549410         1.914911
 H         2.202174        -1.714027         4.077235
 H         3.475787        -1.820279         2.991858
 H         2.723014         1.065751         1.294761
