19
Iteration:  1324charge 0 multiplicity 1
 C        -0.181253        -0.076605         0.281887
 C         1.236204        -0.603424         0.370770
 O         2.230353        -0.245069        -0.646434
 C         3.090703        -0.793583         0.443625
 C         1.988706        -1.997639         0.696463
 C         1.765356        -2.590127         2.086739
 C         2.542160        -1.688912         3.058784
 O         2.354880        -0.288596         2.792126
 C         2.284555         0.053582         1.449287
 H        -0.846407         0.097681         1.125613
 H        -0.167134         0.797835        -0.363043
 H        -0.723189        -0.738555        -0.439724
 H         4.242296        -0.802472         0.290068
 H         2.099546        -2.705773        -0.177447
 H         0.679084        -2.756888         2.429841
 H         2.122213        -3.675784         2.198216
 H         2.349305        -1.734642         4.114875
 H         3.681638        -1.935528         2.758674
 H         2.415615         1.140175         1.267993
