19
Iteration:  3045charge 0 multiplicity 1
 C        -0.151493        -0.186393         0.250888
 C         1.294213        -0.508356         0.445934
 O         2.267942        -0.134044        -0.661717
 C         3.062606        -0.843079         0.505747
 C         1.892847        -1.952879         0.613070
 C         1.857334        -2.607704         2.036416
 C         2.566395        -1.729900         3.003822
 O         2.255050        -0.307596         2.822278
 C         2.284697         0.063060         1.464485
 H        -0.673723        -0.389278         1.256896
 H        -0.340238         0.864027        -0.099715
 H        -0.575943        -0.908663        -0.466264
 H         4.161122        -1.039558         0.472235
 H         1.770556        -2.719936        -0.210128
 H         0.786778        -2.771263         2.347651
 H         2.215931        -3.548965         1.929713
 H         2.341399        -1.812416         4.062321
 H         3.751029        -1.741933         3.002069
 H         2.448749         1.110084         1.474929
