19
Iteration:  3454
 C        -0.085654        -0.118834         0.396128
 C         1.332908        -0.519854         0.494626
 O         2.220701        -0.306554        -0.702499
 C         3.157261        -0.864223         0.357446
 C         1.923179        -1.939525         0.619065
 C         1.956995        -2.612306         1.979164
 C         2.494303        -1.678316         3.084750
 O         2.048903        -0.239728         2.845801
 C         2.343663         0.079648         1.451916
 H        -0.702162        -0.463593         1.263920
 H        -0.149742         0.982179         0.390050
 H        -0.491826        -0.595294        -0.545492
 H         4.216623        -0.869453         0.002216
 H         1.659395        -2.676375        -0.145217
 H         0.756622        -2.878899         2.059518
 H         2.502956        -3.545040         1.963714
 H         2.030924        -2.067265         4.106314
 H         3.625857        -1.678664         2.921668
 H         2.693009         1.162804         1.279473
