19
Iteration:  4643charge 0 multiplicity 1
 C        -0.133755        -0.267047         0.397002
 C         1.317677        -0.572247         0.446568
 O         2.231082        -0.190583        -0.679074
 C         3.117379        -0.894110         0.424883
 C         1.895819        -1.984779         0.614692
 C         1.786682        -2.569294         2.013700
 C         2.482696        -1.655774         3.031286
 O         2.279670        -0.183812         2.787492
 C         2.388212         0.091156         1.446963
 H        -0.447804        -0.654655         1.341841
 H        -0.245890         0.826415         0.337033
 H        -0.684686        -0.817362        -0.353609
 H         4.147564        -0.829196         0.256283
 H         1.757880        -2.663452        -0.221451
 H         0.643215        -2.795162         2.158609
 H         2.268527        -3.509369         2.176450
 H         2.024154        -1.755975         4.031001
 H         3.501029        -1.932597         3.073094
 H         2.542678         1.140897         1.145957
