19
Iteration:  4785charge 0 multiplicity 1
 C        -0.216580        -0.356739         0.203622
 C         1.284077        -0.560370         0.397130
 O         2.225718        -0.118619        -0.593653
 C         3.123831        -0.898327         0.456884
 C         1.928941        -1.901361         0.588621
 C         1.671920        -2.445233         2.062174
 C         2.581662        -1.667019         2.976432
 O         2.400022        -0.301117         2.931419
 C         2.344210         0.032279         1.440786
 H        -0.774757        -0.914431         0.868636
 H        -0.339185         0.713926         0.422048
 H        -0.543003        -0.554011        -0.786632
 H         4.101445        -0.993444         0.109228
 H         1.772648        -2.646942        -0.158480
 H         0.559064        -2.344334         2.276861
 H         1.959287        -3.501348         2.246996
 H         2.466988        -1.780712         4.092747
 H         3.682210        -2.027742         2.852444
 H         2.425051         1.119027         1.353257
