19
Iteration:  2713charge 0 multiplicity 1
 C        -0.204814        -0.088528         0.295932
 C         1.211021        -0.544762         0.366384
 O         2.293406        -0.201795        -0.639564
 C         3.027544        -0.847340         0.491595
 C         2.039400        -1.981862         0.571236
 C         1.888503        -2.636479         1.969440
 C         2.446133        -1.691616         3.096896
 O         2.303368        -0.267930         2.839958
 C         2.332608         0.035036         1.456247
 H        -0.699679        -0.378214         1.181518
 H        -0.209513         1.008474         0.258205
 H        -0.965809        -0.474695        -0.367736
 H         4.021552        -1.008131         0.258068
 H         1.970514        -2.670102        -0.284176
 H         0.822902        -2.952367         2.295992
 H         2.541638        -3.509976         2.074083
 H         1.975390        -1.832722         4.036755
 H         3.557088        -1.949057         3.171474
 H         2.489307         1.139102         1.378748
