19
Iteration:  1369
 C        -0.137847        -0.163471         0.215532
 C         1.330177        -0.399009         0.469582
 O         2.267338        -0.181554        -0.671916
 C         3.064012        -1.002531         0.429708
 C         1.757639        -1.956280         0.685757
 C         1.896185        -2.573173         2.113206
 C         2.581604        -1.610741         3.014737
 O         2.173602        -0.282935         2.838098
 C         2.414806         0.006283         1.430881
 H        -0.673030        -0.680896         1.040209
 H        -0.528274         0.869546         0.273020
 H        -0.673818        -0.553903        -0.640555
 H         4.110133        -1.226986         0.076872
 H         1.319722        -2.661228        -0.041544
 H         0.978609        -3.155860         2.436285
 H         2.676027        -3.439997         2.029432
 H         2.393617        -1.903358         4.072900
 H         3.647462        -1.664374         2.812627
 H         2.746343         1.031433         1.156018
