19
Iteration:  3664
 C        -0.082657        -0.221705         0.304275
 C         1.264305        -0.600782         0.552595
 O         2.223536        -0.180429        -0.582262
 C         3.069091        -0.913185         0.414767
 C         1.957615        -1.985389         0.590432
 C         1.823552        -2.572168         1.994201
 C         2.429356        -1.618523         3.050648
 O         2.356450        -0.207818         2.767413
 C         2.326146         0.057940         1.416965
 H        -0.862219        -0.899573         0.741781
 H        -0.406504         0.663855         0.868765
 H        -0.363002        -0.350286        -0.738765
 H         4.220771        -0.980024         0.187127
 H         1.753315        -2.493388        -0.365293
 H         0.737514        -2.835004         2.201247
 H         2.391488        -3.578418         1.978188
 H         1.809706        -1.726222         3.999606
 H         3.518883        -1.675627         3.170157
 H         2.409700         1.124537         1.294614
