19
Iteration:   654charge 0 multiplicity 1
 C        -0.113136        -0.173874         0.390467
 C         1.302587        -0.457864         0.565965
 O         2.298980        -0.266595        -0.650667
 C         3.037649        -0.977568         0.368746
 C         1.830396        -1.846205         0.673488
 C         1.899801        -2.600991         1.981216
 C         2.484159        -1.614163         3.018205
 O         2.200567        -0.257724         2.748307
 C         2.417143        -0.005861         1.427518
 H        -0.724540         0.081855         1.261811
 H        -0.256083         0.763353        -0.137768
 H        -0.547307        -0.981684        -0.160458
 H         4.118365        -1.257612         0.287607
 H         1.368649        -2.462987        -0.120635
 H         0.768989        -2.677246         2.247740
 H         2.506262        -3.654390         1.857512
 H         2.092094        -1.821865         4.046120
 H         3.703111        -1.732848         3.082589
 H         2.608650         1.040659         1.149891
