19
Iteration:  1591
 C        -0.198001        -0.231029         0.240426
 C         1.251299        -0.501796         0.446440
 O         2.262751        -0.220331        -0.675167
 C         3.042455        -0.900617         0.358765
 C         1.913578        -1.880414         0.623698
 C         1.828784        -2.516115         2.037435
 C         2.558950        -1.701203         3.182587
 O         2.328361        -0.253507         2.861768
 C         2.365845         0.022243         1.431575
 H        -0.849745        -0.576469         0.980820
 H        -0.495314         0.796305         0.196051
 H        -0.484431        -0.597677        -0.713532
 H         4.044271        -1.060718         0.101500
 H         1.646427        -2.572186        -0.130483
 H         0.713494        -2.638813         2.216333
 H         2.263037        -3.571021         1.927340
 H         2.202039        -1.840506         4.224291
 H         3.645610        -2.114920         3.109179
 H         2.639601         1.058084         1.438130
