19
Iteration:  2531
 C        -0.063554        -0.099042         0.361235
 C         1.299213        -0.654693         0.483535
 O         2.198413        -0.205327        -0.627952
 C         3.060243        -0.760974         0.367391
 C         2.094334        -1.985106         0.657142
 C         1.777148        -2.609935         1.962958
 C         2.450912        -1.674659         3.033461
 O         2.257363        -0.302877         2.792501
 C         2.282592         0.044546         1.472734
 H        -0.798342        -0.423738         1.165126
 H         0.131949         0.998510         0.310934
 H        -0.496038        -0.461016        -0.580492
 H         4.179539        -0.776814         0.202022
 H         2.053604        -2.574063        -0.269395
 H         0.734578        -2.622236         2.148079
 H         2.148232        -3.588519         2.160493
 H         2.033007        -2.010535         3.962071
 H         3.497748        -1.891433         2.979493
 H         2.344765         1.146011         1.412467
