19
Iteration:  2875
 C        -0.231802        -0.169345         0.241830
 C         1.242255        -0.525243         0.497792
 O         2.300664        -0.184816        -0.533982
 C         3.103835        -0.883915         0.487637
 C         1.878412        -1.883244         0.633626
 C         1.891537        -2.655803         1.932550
 C         2.524343        -1.688153         2.938445
 O         2.254795        -0.293229         2.852268
 C         2.324452         0.082072         1.415280
 H        -0.678651        -0.195703         1.214691
 H        -0.043953         0.813031        -0.229921
 H        -0.691792        -1.075517        -0.200448
 H         4.146930        -1.013763         0.377318
 H         1.822610        -2.486728        -0.225755
 H         0.980615        -2.995536         2.404419
 H         2.572558        -3.435365         1.872795
 H         1.995166        -1.847190         3.874165
 H         3.598667        -1.799532         3.056398
 H         2.544785         1.160307         1.186316
