19
Iteration:  4541charge 0 multiplicity 1
 C        -0.177846        -0.118668         0.201956
 C         1.264378        -0.527260         0.431929
 O         2.221320        -0.226215        -0.636434
 C         3.032025        -0.979693         0.400106
 C         1.942391        -1.951039         0.699282
 C         1.888582        -2.543612         2.086934
 C         2.636743        -1.609678         3.004968
 O         2.219650        -0.266244         2.863038
 C         2.270840        -0.007272         1.445968
 H        -0.691556        -0.434105         1.103786
 H        -0.234029         0.930880         0.128700
 H        -0.382966        -0.511179        -0.772115
 H         4.171341        -1.243918         0.269025
 H         1.608445        -2.732560        -0.005498
 H         0.864152        -2.588446         2.566493
 H         2.537313        -3.504005         2.136323
 H         2.531608        -1.821451         4.046429
 H         3.677751        -1.653757         2.715696
 H         2.503644         1.073295         1.119049
