19
Iteration:   201
 C        -0.203488         0.010280         0.269260
 C         1.248052        -0.578676         0.433652
 O         2.184434        -0.345575        -0.678285
 C         3.128626        -0.827503         0.457746
 C         1.978563        -1.954480         0.580724
 C         1.820813        -2.536958         2.057848
 C         2.553261        -1.716808         3.146274
 O         2.316380        -0.310365         2.803766
 C         2.321351         0.013935         1.453468
 H        -0.493857         0.577540         1.206528
 H        -0.075964         0.772718        -0.532617
 H        -1.031255        -0.644735        -0.067938
 H         4.142627        -0.832425         0.001279
 H         1.909745        -2.688605        -0.300989
 H         0.770127        -2.546653         2.274208
 H         2.086297        -3.570530         2.127739
 H         2.199014        -1.947164         4.152608
 H         3.736869        -1.878182         3.089866
 H         2.510560         1.115964         1.439144
