19
Iteration:  3060charge 0 multiplicity 1
 C        -0.178681        -0.164678         0.288114
 C         1.262315        -0.459083         0.425783
 O         2.296976        -0.137535        -0.605155
 C         3.067496        -0.872579         0.329230
 C         1.974561        -1.897011         0.690563
 C         1.868584        -2.648816         2.070813
 C         2.563060        -1.667488         3.094431
 O         2.107578        -0.376017         2.794568
 C         2.389949         0.030031         1.430162
 H        -0.755103        -0.294444         1.160688
 H        -0.254066         0.880118         0.018331
 H        -0.759131        -0.867496        -0.358097
 H         4.075764        -0.930284        -0.056419
 H         1.784135        -2.505304        -0.180658
 H         0.818511        -2.798755         2.286151
 H         2.653283        -3.519739         2.109452
 H         2.191995        -2.066547         4.112037
 H         3.643357        -1.866393         2.875614
 H         2.690526         1.132064         1.240555
