19
Iteration:  1627charge 0 multiplicity 1
 C        -0.185333        -0.233258         0.323797
 C         1.263902        -0.671325         0.479777
 O         2.271456        -0.210460        -0.606839
 C         3.096679        -0.740031         0.411883
 C         2.022394        -1.973899         0.666550
 C         1.608573        -2.542040         2.038856
 C         2.462796        -1.727249         3.060702
 O         2.446134        -0.226966         2.786545
 C         2.304224         0.075218         1.403082
 H        -0.718235        -0.519664         1.238813
 H         0.058512         0.824141         0.199544
 H        -0.633337        -0.636871        -0.623458
 H         4.209268        -0.656463         0.058372
 H         2.067241        -2.629611        -0.258279
 H         0.460716        -2.650507         2.013949
 H         1.962086        -3.625195         2.021133
 H         2.321412        -1.827354         4.106351
 H         3.631726        -1.925041         2.795602
 H         2.218131         1.185760         1.147776
