19
Iteration:  1653charge 0 multiplicity 1
 C        -0.205410        -0.282963         0.335572
 C         1.322048        -0.421836         0.386515
 O         2.260984        -0.246660        -0.693072
 C         3.054967        -0.901687         0.445941
 C         1.926502        -1.882349         0.672078
 C         1.814314        -2.494899         2.009430
 C         2.529975        -1.712228         3.077643
 O         2.259684        -0.332972         2.818681
 C         2.414441         0.102584         1.453197
 H        -0.472204        -0.555926         1.427718
 H        -0.399260         0.785046        -0.002813
 H        -0.614255        -0.942572        -0.460331
 H         4.077055        -0.950326         0.105074
 H         1.611413        -2.491302        -0.236545
 H         0.731596        -2.505460         2.092083
 H         2.029020        -3.515943         2.039037
 H         2.042692        -1.922233         4.100147
 H         3.614560        -1.845953         3.155207
 H         2.703301         1.129106         1.389830
