19
Iteration:  4098
 C        -0.262187        -0.308598         0.306546
 C         1.259216        -0.498155         0.470458
 O         2.218481        -0.274912        -0.731370
 C         3.116796        -0.868881         0.396690
 C         2.061364        -1.925060         0.696804
 C         1.727693        -2.552374         2.100452
 C         2.429810        -1.650517         3.070805
 O         2.400820        -0.234583         2.782549
 C         2.363924         0.109161         1.428622
 H        -0.821544        -1.034073         0.913748
 H        -0.480029         0.734130         0.474244
 H        -0.371402        -0.330915        -0.779534
 H         4.184203        -0.801210         0.249358
 H         1.853884        -2.679172        -0.056805
 H         0.652443        -2.369044         2.386112
 H         2.127146        -3.559077         2.109557
 H         2.324841        -1.754324         4.204676
 H         3.558946        -2.085943         2.987548
 H         2.638999         1.154831         1.229492
