19
Iteration:  3220
 C        -0.186026        -0.159323         0.155481
 C         1.281335        -0.592499         0.506231
 O         2.167781        -0.218020        -0.582162
 C         3.089631        -0.820326         0.359065
 C         1.998819        -1.895547         0.625804
 C         1.833651        -2.568368         2.034466
 C         2.618980        -1.746126         3.023830
 O         2.266661        -0.337393         2.872811
 C         2.284377         0.084895         1.502153
 H        -0.939843        -0.366252         0.981805
 H        -0.216684         0.968184         0.093018
 H        -0.448606        -0.566937        -0.832148
 H         4.199003        -0.919253         0.226013
 H         1.922851        -2.585498        -0.272023
 H         0.721889        -2.522902         2.349744
 H         2.154151        -3.574056         1.955987
 H         2.249273        -1.933846         4.041647
 H         3.822757        -1.635017         2.972801
 H         2.466009         1.173850         1.538429
