19
Iteration:    72charge 0 multiplicity 1
 C        -0.036332         0.001971         0.261436
 C         1.245987        -0.653272         0.374329
 O         2.191870        -0.388199        -0.691879
 C         3.025791        -0.733034         0.379694
 C         1.952770        -1.988851         0.647834
 C         1.710645        -2.542369         2.164582
 C         2.504600        -1.657700         3.087383
 O         2.424347        -0.261015         2.818741
 C         2.280147         0.014675         1.464889
 H        -0.732122        -0.797331         0.669302
 H        -0.072523         0.789702         1.035552
 H        -0.377604         0.354870        -0.794821
 H         4.103046        -0.965083         0.164222
 H         1.897704        -2.645371        -0.289531
 H         0.505830        -2.671873         2.156893
 H         2.138192        -3.568835         2.282095
 H         2.335051        -1.845693         4.194672
 H         3.676524        -1.903116         2.896854
 H         2.397341         1.127004         1.276994
