19
Iteration:   846charge 0 multiplicity 1
 C        -0.160145        -0.105667         0.364762
 C         1.324703        -0.521488         0.502962
 O         2.286016        -0.256397        -0.688284
 C         3.112412        -0.959919         0.397517
 C         1.777891        -1.879794         0.624678
 C         1.890415        -2.613338         2.026241
 C         2.470262        -1.634353         3.035315
 O         2.199560        -0.239939         2.822748
 C         2.394319         0.043635         1.432773
 H        -0.620332        -0.182791         1.322933
 H        -0.444239         0.862668        -0.015930
 H        -0.387009        -0.974676        -0.260069
 H         4.034060        -1.296204        -0.048486
 H         1.702564        -2.683819        -0.093555
 H         0.960074        -3.203876         2.421982
 H         2.685649        -3.244383         1.800395
 H         2.252087        -1.908740         4.097267
 H         3.570394        -1.649514         2.944451
 H         2.687538         1.067640         1.253712
