19
Iteration:  4264
 C        -0.248993        -0.378370         0.425785
 C         1.325443        -0.511921         0.417005
 O         2.277778        -0.303103        -0.755169
 C         3.072155        -0.817308         0.507650
 C         2.040443        -1.867550         0.661000
 C         1.671627        -2.485479         2.039487
 C         2.443137        -1.682096         3.102036
 O         2.369605        -0.259189         2.761775
 C         2.403714         0.108912         1.380330
 H        -0.403927        -0.193140         1.464091
 H        -0.411086         0.444592        -0.255652
 H        -0.875594        -1.163099         0.062707
 H         4.138348        -0.890754         0.131862
 H         1.819752        -2.475370        -0.230170
 H         0.586908        -2.387835         2.139215
 H         2.016957        -3.490087         1.843546
 H         1.975418        -1.601663         4.125628
 H         3.539159        -1.977357         3.050065
 H         2.705790         1.125705         1.344897
