19
Iteration:  3319charge 0 multiplicity 1
 C        -0.132678        -0.245454         0.372952
 C         1.312868        -0.572040         0.560568
 O         2.242070        -0.239814        -0.711917
 C         3.081049        -0.728484         0.371627
 C         2.064600        -1.899050         0.603448
 C         1.760054        -2.549223         1.957640
 C         2.446043        -1.742068         3.055514
 O         2.237296        -0.303065         2.822543
 C         2.350244         0.052954         1.472319
 H        -0.675989        -0.298130         1.311113
 H        -0.065616         0.807244         0.109254
 H        -0.680415        -0.958975        -0.213204
 H         4.121215        -0.796871         0.090545
 H         1.928803        -2.524499        -0.316887
 H         0.670796        -2.580339         2.091156
 H         2.376825        -3.461848         2.031835
 H         2.127771        -1.824510         4.083183
 H         3.433828        -1.859557         3.133715
 H         2.440304         1.170803         1.363345
