19
Iteration:  3654charge 0 multiplicity 1
 C        -0.169492        -0.190059         0.290820
 C         1.288606        -0.583234         0.541440
 O         2.214613        -0.239320        -0.611466
 C         3.096626        -0.872569         0.436495
 C         1.947262        -1.942730         0.596697
 C         1.836869        -2.678874         1.971521
 C         2.431944        -1.556543         3.058700
 O         2.300933        -0.211169         2.800160
 C         2.347470         0.076704         1.436714
 H        -0.793731        -0.951520         0.782851
 H        -0.277485         0.882397         0.590128
 H        -0.252097         0.047226        -0.773567
 H         4.143935        -1.114516        -0.025256
 H         1.709758        -2.650820        -0.223213
 H         0.947819        -3.126085         2.281754
 H         2.572409        -3.511983         2.010586
 H         2.157985        -1.748993         4.129674
 H         3.500994        -1.945928         3.084451
 H         2.619742         1.088928         1.322460
