19
Iteration:   519charge 0 multiplicity 1
 C        -0.115725        -0.026962         0.337356
 C         1.328440        -0.544928         0.390101
 O         2.180289        -0.270582        -0.724817
 C         3.088504        -0.915277         0.451445
 C         1.917062        -1.979502         0.696595
 C         1.878578        -2.650302         2.035355
 C         2.462893        -1.631184         3.044431
 O         2.288152        -0.250192         2.805145
 C         2.319319         0.049751         1.438453
 H        -0.522400        -0.403993         1.256196
 H        -0.116883         1.024066         0.551779
 H        -0.734839        -0.427809        -0.455739
 H         4.112250        -1.192113         0.138031
 H         1.682818        -2.664038        -0.147382
 H         0.878770        -2.848931         2.373994
 H         2.599922        -3.562849         2.117862
 H         2.042278        -1.759668         4.058304
 H         3.462404        -1.759835         3.146525
 H         2.483655         1.096833         1.129380
