19
Iteration:  2041charge 0 multiplicity 1
 C        -0.099811        -0.050799         0.368238
 C         1.291484        -0.573216         0.436978
 O         2.164963        -0.258234        -0.708761
 C         3.135675        -0.897721         0.419705
 C         2.018359        -1.927611         0.706806
 C         1.857948        -2.652732         1.991053
 C         2.501729        -1.736323         3.028102
 O         2.170819        -0.275664         2.815731
 C         2.332034         0.108225         1.430162
 H        -0.839422        -0.288883         1.189125
 H        -0.047485         1.065443         0.326982
 H        -0.669194        -0.388750        -0.560878
 H         4.262132        -1.034335         0.285151
 H         1.928537        -2.650903        -0.063872
 H         0.733357        -2.614999         2.327882
 H         2.341693        -3.573700         2.070846
 H         2.192037        -1.848928         4.051704
 H         3.627156        -1.757722         2.956107
 H         2.578070         1.181373         1.314248
