19
Iteration:  4085
 C        -0.110753        -0.359916         0.277905
 C         1.304702        -0.618405         0.525655
 O         2.187930        -0.220185        -0.608402
 C         3.093241        -0.799330         0.345600
 C         1.954249        -1.926591         0.652869
 C         1.686458        -2.447516         2.074936
 C         2.436015        -1.613649         3.099270
 O         2.448723        -0.253653         2.758237
 C         2.384186         0.058666         1.393560
 H        -0.771148        -0.972487         0.905707
 H        -0.436719         0.620630         0.494339
 H        -0.391267        -0.695892        -0.696704
 H         4.061281        -1.005222        -0.032412
 H         1.827222        -2.581456        -0.208581
 H         0.618488        -2.581486         2.068127
 H         1.922549        -3.503557         2.327266
 H         1.973757        -1.680497         4.098401
 H         3.583436        -1.942138         3.032071
 H         2.390985         1.198057         1.362684
