19
Iteration:  4151charge 0 multiplicity 1
 C        -0.123533        -0.007917         0.205886
 C         1.185759        -0.592181         0.505306
 O         2.207426        -0.265543        -0.596580
 C         3.031813        -0.984815         0.389509
 C         1.917453        -2.056502         0.658907
 C         2.002657        -2.643096         2.111578
 C         2.625187        -1.540426         3.057988
 O         2.098292        -0.218862         2.819598
 C         2.407998         0.054836         1.399116
 H        -0.832202        -0.548916         0.861796
 H        -0.214758         1.031152         0.281697
 H        -0.446531        -0.175975        -0.810037
 H         3.994451        -1.184498         0.019047
 H         1.799450        -2.718216        -0.192896
 H         1.060347        -2.861466         2.570783
 H         2.443958        -3.707254         2.179913
 H         2.476065        -1.688020         4.134464
 H         3.603817        -1.511947         2.542788
 H         2.581306         1.143850         1.096287
