19
Iteration:  4517
 C        -0.204101        -0.114919         0.334636
 C         1.279530        -0.507520         0.465488
 O         2.290897        -0.330732        -0.688691
 C         3.001909        -0.875594         0.407494
 C         1.907654        -1.939336         0.654002
 C         1.910252        -2.634993         2.048438
 C         2.609170        -1.625782         3.119084
 O         2.108302        -0.284187         2.757047
 C         2.410179         0.096048         1.405014
 H        -0.510266        -0.034038         1.364754
 H        -0.203035         0.905573         0.008683
 H        -0.651330        -0.733857        -0.425594
 H         4.118447        -1.128243         0.208313
 H         1.616623        -2.583189        -0.190760
 H         0.975773        -2.868400         2.524173
 H         2.658670        -3.532121         1.950417
 H         2.318826        -1.703982         4.159645
 H         3.730415        -1.606512         3.081454
 H         2.509691         1.133220         1.196274
