19
Iteration:  2325charge 0 multiplicity 1
 C        -0.126431        -0.130130         0.302989
 C         1.283050        -0.567819         0.445791
 O         2.248366        -0.282074        -0.632450
 C         3.065490        -0.726360         0.413876
 C         2.062056        -1.992462         0.583696
 C         1.682174        -2.555713         2.005496
 C         2.464327        -1.722140         2.990235
 O         2.417610        -0.281260         2.865549
 C         2.204382         0.054797         1.523390
 H        -0.527829        -0.300084         1.282144
 H         0.005852         0.870154        -0.057562
 H        -0.520757        -0.803829        -0.400745
 H         4.176409        -1.029789         0.267063
 H         1.920668        -2.643045        -0.258871
 H         0.621756        -2.469162         2.170520
 H         2.112872        -3.582992         2.083683
 H         2.215662        -1.769486         4.055493
 H         3.540925        -1.947158         2.708351
 H         2.114701         1.154603         1.422275
