19
Iteration:  2804
 C        -0.243618        -0.220306         0.227114
 C         1.308466        -0.557274         0.440172
 O         2.295333        -0.174649        -0.609690
 C         3.091152        -0.813546         0.518085
 C         1.930425        -1.910881         0.593404
 C         1.745165        -2.589172         2.004333
 C         2.550777        -1.716106         3.009079
 O         2.340046        -0.249611         2.857092
 C         2.309761         0.060727         1.484970
 H        -0.768676        -0.696595         1.130052
 H        -0.326621         0.848091         0.171012
 H        -0.659297        -0.836329        -0.592595
 H         4.218531        -0.930521         0.353802
 H         1.764067        -2.597718        -0.317804
 H         0.646587        -2.644273         2.245089
 H         2.223053        -3.702999         1.983180
 H         2.307428        -2.242892         3.979122
 H         3.669620        -1.808854         2.589831
 H         2.391055         1.155559         1.364417
