19
Iteration:  1055
 C        -0.064450        -0.253275         0.387320
 C         1.349352        -0.440947         0.454227
 O         2.205535        -0.238962        -0.697175
 C         3.063320        -1.015130         0.354192
 C         1.851148        -1.850794         0.674670
 C         1.868703        -2.576215         1.950629
 C         2.455647        -1.604601         3.020596
 O         2.208030        -0.241649         2.839053
 C         2.395430         0.060265         1.501478
 H        -0.411521        -0.106419         1.377130
 H        -0.350035         0.734786        -0.065450
 H        -0.419047        -1.123498        -0.173105
 H         4.046286        -1.367982         0.118058
 H         1.627677        -2.554040        -0.160864
 H         0.783380        -2.866502         2.266808
 H         2.507593        -3.425219         1.852917
 H         1.961479        -1.924941         4.007956
 H         3.571744        -1.719699         3.216109
 H         2.963911         1.006656         1.355625
