19
Iteration:  4453charge 0 multiplicity 1
 C        -0.171935        -0.291322         0.412366
 C         1.329067        -0.535675         0.384935
 O         2.168899        -0.204810        -0.660838
 C         3.142326        -0.875126         0.387199
 C         1.982503        -1.960065         0.570109
 C         1.804697        -2.507716         2.060614
 C         2.377827        -1.600780         3.136627
 O         2.366320        -0.275863         2.772865
 C         2.397595         0.074163         1.424858
 H        -0.605728        -0.107519         1.376992
 H        -0.429215         0.484934        -0.243341
 H        -0.826484        -1.082469         0.061060
 H         4.230855        -1.205277         0.078385
 H         1.930816        -2.729862        -0.222535
 H         0.680597        -2.653802         2.177109
 H         2.318370        -3.517759         2.053184
 H         1.708952        -1.542477         3.964009
 H         3.357048        -1.945376         3.438719
 H         2.665266         1.142298         1.185125
