19
Iteration:  2007
 C        -0.159813        -0.167294         0.330758
 C         1.263221        -0.601858         0.415009
 O         2.255288        -0.193403        -0.655150
 C         3.125114        -0.869590         0.432179
 C         1.939339        -1.908600         0.638818
 C         1.801343        -2.538836         2.019027
 C         2.496328        -1.718354         3.078776
 O         2.371905        -0.250045         2.803094
 C         2.264171         0.031372         1.421613
 H        -0.716832        -0.482687         1.237646
 H        -0.133516         0.933144         0.301542
 H        -0.658819        -0.519441        -0.629276
 H         4.236644        -1.029491         0.347000
 H         1.831483        -2.652588        -0.102591
 H         0.648584        -2.629294         2.179066
 H         2.047650        -3.565121         1.896730
 H         2.005235        -1.969462         3.996159
 H         3.554965        -2.048006         3.146130
 H         2.332532         1.127986         1.409101
