19
Iteration:  4887
 C        -0.106313        -0.079874         0.322759
 C         1.264790        -0.487309         0.451470
 O         2.246771        -0.243115        -0.688390
 C         3.055314        -0.914233         0.449849
 C         1.883668        -1.927379         0.641621
 C         1.941419        -2.668572         2.010146
 C         2.543921        -1.675641         3.101191
 O         2.191391        -0.283713         2.759025
 C         2.296536         0.067998         1.412126
 H        -0.674757        -0.582688         1.138359
 H        -0.286745         0.946851         0.525675
 H        -0.418365        -0.401704        -0.679777
 H         4.152391        -1.062595         0.472410
 H         1.740471        -2.538817        -0.319907
 H         0.961960        -3.189879         2.434966
 H         2.577830        -3.565041         2.089306
 H         2.069838        -1.791628         4.082459
 H         3.674612        -1.512468         3.192761
 H         2.568252         1.136128         1.441094
