19
Iteration:   210
 C        -0.198687        -0.037976         0.245908
 C         1.249585        -0.527962         0.468986
 O         2.186714        -0.310328        -0.634974
 C         3.074002        -0.940152         0.439397
 C         1.976821        -1.877418         0.633063
 C         1.815962        -2.588493         2.015642
 C         2.540606        -1.678185         3.086060
 O         2.310558        -0.295963         2.824202
 C         2.381644         0.035998         1.425406
 H        -0.536645         0.526523         1.172448
 H        -0.241924         0.689285        -0.571291
 H        -0.953503        -0.742692        -0.003244
 H         4.168177        -1.154265         0.433387
 H         1.909589        -2.589230        -0.216952
 H         0.774729        -2.625397         2.194148
 H         2.291475        -3.650278         1.957249
 H         2.287445        -1.758173         4.126310
 H         3.730717        -1.945521         3.026385
 H         2.466650         1.105327         1.266560
