19
Iteration:  1837charge 0 multiplicity 1
 C        -0.142298        -0.127015         0.312688
 C         1.253084        -0.600993         0.439474
 O         2.222049        -0.241717        -0.675553
 C         3.062407        -0.794129         0.357974
 C         2.011325        -1.965732         0.601522
 C         1.809002        -2.590154         2.003233
 C         2.414770        -1.657802         3.074556
 O         2.352308        -0.243675         2.877546
 C         2.348598         0.016521         1.486747
 H        -0.751287        -0.413240         1.154787
 H        -0.225864         0.940752         0.206654
 H        -0.596377        -0.554808        -0.526786
 H         4.127003        -0.848847         0.165649
 H         2.010683        -2.782036        -0.150826
 H         0.721899        -2.799684         2.298130
 H         2.252728        -3.610649         2.253816
 H         2.098816        -1.872114         4.076040
 H         3.481330        -1.890200         2.942140
 H         2.543765         1.019899         1.218753
