19
Iteration:  1109
 C        -0.133513        -0.162581         0.270081
 C         1.275929        -0.678774         0.336487
 O         2.115967        -0.273401        -0.650912
 C         3.080585        -0.794320         0.505840
 C         2.025517        -1.921606         0.598614
 C         1.710536        -2.454490         2.015762
 C         2.514387        -1.731959         3.088510
 O         2.374830        -0.292660         2.862848
 C         2.358322         0.104845         1.438664
 H        -0.356059        -0.234402         1.359725
 H        -0.058662         0.876749        -0.218043
 H        -0.894625        -0.788537        -0.271911
 H         4.109193        -0.825755         0.191507
 H         2.228015        -2.643150        -0.198569
 H         0.667717        -2.522027         2.337919
 H         2.001191        -3.490458         2.122974
 H         2.219441        -2.070825         4.167613
 H         3.525222        -1.968061         3.029920
 H         2.655424         1.177746         1.224372
