19
Iteration:  4121charge 0 multiplicity 1
 C        -0.195707        -0.173429         0.271454
 C         1.225778        -0.548870         0.385213
 O         2.294490        -0.377585        -0.656615
 C         3.046134        -0.897572         0.463799
 C         1.856293        -1.887689         0.641833
 C         1.893440        -2.535033         2.055770
 C         2.593125        -1.606802         3.076835
 O         2.263927        -0.268047         2.803836
 C         2.328161         0.122191         1.426333
 H        -0.591715        -0.968733         0.907967
 H        -0.349225         0.809632         0.751642
 H        -0.620384        -0.140236        -0.748004
 H         4.088724        -1.085876         0.154386
 H         1.763387        -2.642858        -0.144543
 H         0.830315        -2.529666         2.450324
 H         2.380364        -3.492707         2.073189
 H         2.357705        -1.835368         4.171239
 H         3.750706        -1.834977         3.110185
 H         2.420977         1.164327         1.244623
