19
Iteration:  4591
 C        -0.187574        -0.308115         0.121333
 C         1.229522        -0.522392         0.415032
 O         2.191545        -0.224386        -0.666124
 C         3.049605        -0.821937         0.408210
 C         1.897932        -1.865178         0.689485
 C         1.703366        -2.529045         2.125482
 C         2.606400        -1.714490         3.167920
 O         2.477821        -0.316516         2.800313
 C         2.302607         0.143430         1.479233
 H        -0.647606        -1.087737         0.777781
 H        -0.554916         0.773119         0.324191
 H        -0.317377        -0.536097        -0.980549
 H         4.070896        -1.025202         0.235885
 H         2.060122        -2.651127        -0.080607
 H         0.636735        -2.466909         2.292805
 H         1.997521        -3.555382         2.086241
 H         2.458561        -1.643775         4.266881
 H         3.637867        -2.085716         2.889250
 H         2.660111         1.138637         1.347704
