19
Iteration:  1041charge 0 multiplicity 1
 C        -0.131392        -0.127283         0.383979
 C         1.343075        -0.459005         0.531753
 O         2.263897        -0.312060        -0.698370
 C         3.066313        -0.965156         0.311077
 C         1.874938        -1.940743         0.548722
 C         1.885760        -2.517634         2.003373
 C         2.485379        -1.672563         3.116022
 O         2.178887        -0.239937         2.877520
 C         2.430779         0.074289         1.417136
 H        -0.648718        -0.472109         1.321826
 H        -0.367944         0.847312        -0.116256
 H        -0.614841        -0.869800        -0.335439
 H         4.154889        -1.061124         0.006864
 H         1.407990        -2.503358        -0.241735
 H         0.965179        -2.919361         2.271711
 H         2.486978        -3.488683         2.045146
 H         2.154443        -1.898713         4.163387
 H         3.454174        -1.872151         3.079569
 H         2.400088         1.159121         1.378481
