19
Iteration:  2947charge 0 multiplicity 1
 C        -0.167006        -0.163444         0.343687
 C         1.294593        -0.561960         0.440931
 O         2.267743        -0.191024        -0.610206
 C         3.085472        -0.843757         0.503106
 C         1.958563        -1.992776         0.645929
 C         1.837213        -2.632710         1.923682
 C         2.489180        -1.705499         2.977725
 O         2.262134        -0.224349         2.807800
 C         2.311300         0.089075         1.466463
 H        -0.744017        -0.738776         1.070837
 H        -0.239035         0.906148         0.469220
 H        -0.564969        -0.551157        -0.535948
 H         4.168347        -0.991183         0.232513
 H         1.813075        -2.569531        -0.306026
 H         0.825468        -2.957173         2.093064
 H         2.541755        -3.469739         2.038632
 H         2.128897        -1.808007         3.970984
 H         3.482367        -1.791933         2.927388
 H         2.332131         1.142491         1.445702
