19
Iteration:  1133charge 0 multiplicity 1
 C        -0.213020        -0.201317         0.203820
 C         1.295348        -0.526556         0.575694
 O         2.283971        -0.204342        -0.639932
 C         3.019975        -0.885744         0.365867
 C         1.955982        -1.919161         0.658649
 C         1.781621        -2.558136         2.065983
 C         2.563647        -1.680455         3.073781
 O         2.349804        -0.290172         2.791567
 C         2.316309         0.055524         1.461360
 H        -0.874767        -0.520582         1.022541
 H        -0.174583         0.859245        -0.105630
 H        -0.526093        -0.763897        -0.690643
 H         4.041590        -1.012257         0.073635
 H         1.661846        -2.546785        -0.221266
 H         0.654039        -2.551248         2.328536
 H         1.976445        -3.589752         2.222252
 H         2.445437        -1.916381         4.153984
 H         3.559521        -1.813086         2.886077
 H         2.397283         1.147385         1.231542
