19
Iteration:    69
 C        -0.056683        -0.015410         0.265204
 C         1.241720        -0.607030         0.344460
 O         2.200379        -0.367511        -0.703202
 C         3.029420        -0.771310         0.398308
 C         1.954147        -1.998515         0.663399
 C         1.705743        -2.572646         2.167509
 C         2.542320        -1.659157         3.108031
 O         2.413209        -0.270002         2.802910
 C         2.272361         0.040026         1.458973
 H        -0.789137        -0.800269         0.704664
 H        -0.078756         0.838929         0.995453
 H        -0.282692         0.348439        -0.702696
 H         4.071389        -1.032291         0.197625
 H         1.918362        -2.631107        -0.257641
 H         0.578894        -2.657604         2.203359
 H         2.093434        -3.538769         2.183724
 H         2.360405        -1.757269         4.124823
 H         3.565378        -1.868361         2.966354
 H         2.411307         1.090276         1.300912
