19
Iteration:  1817charge 0 multiplicity 1
 C        -0.102165        -0.230161         0.326884
 C         1.270075        -0.617352         0.508974
 O         2.158300        -0.233639        -0.614865
 C         3.171071        -0.808745         0.392336
 C         2.051543        -1.925326         0.667160
 C         1.718372        -2.520933         1.987019
 C         2.505987        -1.735129         3.079519
 O         2.353407        -0.312451         2.746235
 C         2.311278         0.104445         1.438595
 H        -0.851965        -0.416159         1.099146
 H        -0.178172         0.855081         0.185078
 H        -0.524190        -0.476655        -0.598642
 H         4.186195        -0.846897         0.108638
 H         1.923578        -2.545901        -0.280366
 H         0.614605        -2.375592         2.113311
 H         1.722093        -3.557365         2.122883
 H         1.951224        -1.617976         4.055834
 H         3.513199        -1.875577         3.208105
 H         2.283515         1.175178         1.264323
