19
Iteration:  3763
 C        -0.148399        -0.086784         0.163380
 C         1.202821        -0.495994         0.423073
 O         2.233038        -0.261880        -0.655092
 C         3.040259        -0.908128         0.375186
 C         1.918093        -1.924565         0.606630
 C         1.950478        -2.567037         2.079584
 C         2.671758        -1.666471         3.123136
 O         2.216063        -0.327999         2.879355
 C         2.270506         0.026908         1.469471
 H        -0.639105         0.313637         1.058223
 H        -0.187491         0.815192        -0.499402
 H        -0.838591        -0.878706        -0.152482
 H         4.165195        -1.167542         0.338911
 H         1.595784        -2.646588        -0.153727
 H         0.809467        -2.721549         2.376821
 H         2.596465        -3.555498         1.950171
 H         2.361265        -1.761536         4.190897
 H         3.767731        -1.783115         3.109422
 H         2.249142         1.074698         1.491814
