19
Iteration:  2959
 C        -0.233475        -0.245071         0.262091
 C         1.254732        -0.508976         0.463031
 O         2.275238        -0.226521        -0.582511
 C         3.091396        -0.861349         0.431562
 C         1.938335        -1.879732         0.542313
 C         1.830732        -2.679721         1.949057
 C         2.482716        -1.657877         3.047056
 O         2.297188        -0.216628         2.893251
 C         2.369119         0.104618         1.501813
 H        -0.739481        -0.672389         1.082442
 H        -0.518966         0.802473         0.364625
 H        -0.564925        -0.467177        -0.681319
 H         4.187701        -0.986727         0.257218
 H         1.927934        -2.623220        -0.247344
 H         0.811394        -2.984840         2.158142
 H         2.389161        -3.676157         1.769757
 H         2.341225        -1.966428         4.070669
 H         3.436999        -1.860946         2.862815
 H         2.700346         1.058834         1.219784
