19
Iteration:  2594
 C        -0.102122        -0.173555         0.274501
 C         1.332759        -0.483278         0.536541
 O         2.204255        -0.220678        -0.663382
 C         3.082377        -0.873529         0.360211
 C         1.886794        -1.854352         0.711595
 C         1.880677        -2.633451         1.964274
 C         2.535698        -1.685567         3.029351
 O         2.158039        -0.326411         2.869552
 C         2.391004         0.037121         1.460581
 H        -0.869086        -0.522781         0.945035
 H        -0.298685         0.909999         0.060258
 H        -0.238530        -0.572235        -0.739839
 H         4.109192        -0.903906         0.054236
 H         1.569551        -2.395577        -0.233380
 H         0.849745        -2.952323         2.200361
 H         2.437321        -3.719325         1.845582
 H         2.174939        -1.679957         4.094714
 H         3.662125        -1.772908         3.273808
 H         2.649697         1.149538         1.346061
