19
Iteration:  2498charge 0 multiplicity 1
 C        -0.201489        -0.283744         0.286767
 C         1.272981        -0.449672         0.441673
 O         2.347284        -0.187083        -0.658901
 C         3.027848        -0.832526         0.401087
 C         1.884710        -1.846550         0.611929
 C         1.782148        -2.557695         1.983488
 C         2.545959        -1.752920         3.083382
 O         2.305940        -0.335700         2.854363
 C         2.373354         0.083402         1.484134
 H        -0.642656        -0.379693         1.322178
 H        -0.454508         0.680578        -0.206683
 H        -0.469674        -1.076872        -0.417825
 H         4.115458        -1.122196         0.290147
 H         1.680425        -2.439938        -0.317215
 H         0.719399        -2.573411         2.243705
 H         2.033192        -3.581807         1.857192
 H         2.084447        -2.026805         4.033333
 H         3.586748        -1.818422         3.218491
 H         2.608510         1.172641         1.524882
