19
Iteration:  4464charge 0 multiplicity 1
 C        -0.180392        -0.234611         0.432380
 C         1.325099        -0.593112         0.475253
 O         2.182635        -0.146718        -0.745600
 C         3.079916        -0.948839         0.421782
 C         2.067161        -1.973223         0.638984
 C         1.864248        -2.503634         1.993208
 C         2.349451        -1.655988         3.166136
 O         2.319781        -0.206900         2.737399
 C         2.393914        -0.000457         1.370878
 H        -0.442802         0.165567         1.403461
 H        -0.222198         0.595773        -0.200121
 H        -0.735275        -1.085621         0.073532
 H         4.171071        -0.881459         0.034344
 H         1.745925        -2.709267        -0.095347
 H         0.753150        -2.667320         2.168109
 H         2.283402        -3.548749         2.172922
 H         1.773637        -1.800193         4.060500
 H         3.363222        -1.815486         3.450333
 H         2.416355         1.114864         1.256655
