19
Iteration:  3815
 C        -0.110888        -0.010805         0.316504
 C         1.237014        -0.586145         0.408710
 O         2.256223        -0.306318        -0.660863
 C         3.024819        -0.939176         0.400103
 C         1.939240        -1.973056         0.648955
 C         2.005719        -2.600780         2.039825
 C         2.602014        -1.609102         2.994113
 O         2.100323        -0.245527         2.863762
 C         2.271218         0.030568         1.453605
 H        -0.610399         0.074319         1.320667
 H        -0.040375         0.891664        -0.278035
 H        -0.772161        -0.559955        -0.348019
 H         4.110729        -1.049160         0.365108
 H         1.789094        -2.746537        -0.115833
 H         1.010325        -2.905090         2.312982
 H         2.689761        -3.418318         1.919845
 H         2.334088        -1.846816         4.089098
 H         3.671945        -1.696415         3.183659
 H         2.407925         1.133094         1.345856
