19
Iteration:  3103
 C        -0.151128        -0.063661         0.395756
 C         1.255557        -0.604333         0.425159
 O         2.275949        -0.259735        -0.641548
 C         3.096931        -0.816949         0.426355
 C         2.005569        -1.953343         0.618288
 C         1.960144        -2.679266         1.929776
 C         2.400917        -1.691318         3.065545
 O         2.183928        -0.241884         2.791796
 C         2.273006         0.083078         1.460621
 H        -0.384594        -0.265889         1.433911
 H        -0.111022         1.031645         0.378371
 H        -0.839729        -0.469114        -0.394747
 H         4.165310        -0.974097         0.354159
 H         1.901043        -2.661147        -0.206468
 H         1.004825        -3.162060         2.204656
 H         2.782520        -3.423583         1.781811
 H         1.948426        -1.906774         4.131942
 H         3.607759        -1.865281         2.921309
 H         2.403119         1.220262         1.314905
