19
Iteration:   458
 C        -0.123810        -0.237200         0.360862
 C         1.305256        -0.479280         0.440371
 O         2.348791        -0.232619        -0.705933
 C         3.013525        -0.934809         0.448777
 C         1.786671        -1.872799         0.627315
 C         1.811288        -2.557489         2.027663
 C         2.491507        -1.632931         3.030036
 O         2.320455        -0.226652         2.817655
 C         2.385315        -0.001533         1.467550
 H        -0.501186         0.109857         1.380238
 H        -0.438364         0.495685        -0.441325
 H        -0.753592        -1.101498         0.065085
 H         3.964994        -1.311119         0.154479
 H         1.413385        -2.476947        -0.189699
 H         0.819557        -2.973906         2.296051
 H         2.337818        -3.423550         1.860388
 H         2.144974        -1.758695         4.059898
 H         3.552815        -1.854967         3.013300
 H         2.654394         1.030712         1.366890
