19
Iteration:  2035
 C        -0.143771        -0.045852         0.358218
 C         1.256642        -0.561901         0.436399
 O         2.185470        -0.296898        -0.715868
 C         3.117960        -0.837567         0.434674
 C         2.057283        -1.971992         0.670347
 C         1.853875        -2.628788         2.052515
 C         2.480685        -1.697539         2.994740
 O         2.209359        -0.259642         2.813500
 C         2.342301         0.092181         1.443220
 H        -0.800010        -0.238963         1.217214
 H         0.002296         1.049193         0.439374
 H        -0.643979        -0.351333        -0.530241
 H         4.171268        -0.982648         0.310550
 H         2.029275        -2.708773        -0.214607
 H         0.735244        -2.596934         2.048460
 H         2.226177        -3.736722         2.094770
 H         2.254054        -2.142527         4.024367
 H         3.546161        -1.958526         3.015806
 H         2.512321         1.177206         1.531744
