19
Iteration:   197
 C        -0.179662         0.033139         0.273170
 C         1.235889        -0.602698         0.410915
 O         2.201484        -0.328630        -0.708049
 C         3.109301        -0.783120         0.412786
 C         1.988786        -2.023161         0.627268
 C         1.820511        -2.507689         2.068880
 C         2.554511        -1.729534         3.124191
 O         2.319189        -0.321226         2.819647
 C         2.292240         0.018552         1.465551
 H        -0.488984         0.508640         1.205457
 H         0.073565         0.809415        -0.443896
 H        -0.906203        -0.703946         0.042609
 H         4.099289        -0.728323        -0.015528
 H         1.856292        -2.626189        -0.220743
 H         0.748524        -2.495918         2.363845
 H         2.076413        -3.674260         2.208638
 H         2.112868        -1.958319         4.099266
 H         3.675601        -1.878472         3.130789
 H         2.496641         1.059994         1.432940
