19
Iteration:  2485
 C        -0.197213        -0.318859         0.230065
 C         1.260591        -0.438359         0.515429
 O         2.423483        -0.106229        -0.606287
 C         3.063528        -0.921742         0.440045
 C         1.808937        -1.875705         0.600744
 C         1.777806        -2.504959         1.964901
 C         2.514136        -1.704084         2.973012
 O         2.345009        -0.291558         2.841137
 C         2.313439         0.004198         1.522440
 H        -0.724611        -0.322327         1.222115
 H        -0.566710         0.673007        -0.157333
 H        -0.778336        -1.195300        -0.201628
 H         4.150429        -1.033850         0.254695
 H         1.430151        -2.752081        -0.043656
 H         0.872214        -2.796874         2.331853
 H         2.493654        -3.420371         1.921979
 H         2.152948        -1.826061         4.052403
 H         3.507098        -2.143198         2.816361
 H         2.614139         1.094633         1.272239
