19
Iteration:  4511
 C        -0.163925        -0.106313         0.376097
 C         1.311640        -0.498480         0.449330
 O         2.219489        -0.356166        -0.709075
 C         3.038781        -0.886074         0.452634
 C         1.963626        -1.859442         0.668240
 C         1.959684        -2.634877         2.017873
 C         2.529518        -1.636445         3.058881
 O         2.125197        -0.282165         2.794018
 C         2.350970         0.061732         1.345485
 H        -0.494224         0.079367         1.441435
 H        -0.261194         0.968952        -0.013345
 H        -0.670043        -0.888936        -0.255047
 H         4.063203        -1.199883         0.484473
 H         1.789227        -2.653160        -0.076150
 H         0.922651        -2.924941         2.420519
 H         2.524479        -3.513728         2.002396
 H         2.232662        -1.648014         4.143619
 H         3.649877        -1.625918         3.177717
 H         2.770418         1.123515         1.070316
