19
Iteration:  1558charge 0 multiplicity 1
 C        -0.145425        -0.113937         0.268111
 C         1.297985        -0.412712         0.475677
 O         2.219041        -0.271847        -0.593850
 C         2.994896        -0.973897         0.477910
 C         1.867389        -1.894170         0.674514
 C         1.921435        -2.637694         2.002997
 C         2.579089        -1.640850         3.070177
 O         2.177116        -0.277459         2.746368
 C         2.384432         0.073089         1.412925
 H        -0.739064        -0.598353         0.995340
 H        -0.336022         0.920459        -0.008267
 H        -0.304010        -0.724083        -0.603452
 H         4.000429        -1.230825         0.348541
 H         1.601483        -2.539304        -0.095154
 H         0.951307        -3.073404         2.400031
 H         2.601734        -3.562477         1.901819
 H         2.389076        -1.727918         4.176307
 H         3.793506        -1.727696         2.841914
 H         2.829933         1.047631         1.202120
