19
Iteration:  3180
 C        -0.241425        -0.353645         0.196626
 C         1.202525        -0.482943         0.412496
 O         2.309267        -0.144019        -0.517505
 C         3.079871        -0.826074         0.523133
 C         1.925844        -1.853397         0.663817
 C         1.721342        -2.541328         1.983361
 C         2.601909        -1.702085         2.967430
 O         2.377586        -0.322920         2.808095
 C         2.354441         0.065950         1.471236
 H        -0.760734        -0.790677         1.029172
 H        -0.375575         0.726822         0.068480
 H        -0.575302        -1.029403        -0.649900
 H         4.085096        -1.045528         0.238910
 H         1.798647        -2.478339        -0.211143
 H         0.669332        -2.376750         2.322300
 H         2.029996        -3.618581         1.942952
 H         2.373281        -1.940448         4.069823
 H         3.498647        -2.040853         2.844186
 H         2.472750         1.182695         1.269513
