19
Iteration:   840
 C        -0.192858        -0.105849         0.347945
 C         1.316900        -0.511215         0.469339
 O         2.297854        -0.211359        -0.702707
 C         3.096933        -0.956920         0.395782
 C         1.826463        -1.972524         0.671154
 C         1.849260        -2.618855         2.066655
 C         2.489357        -1.641501         3.055564
 O         2.209781        -0.247382         2.824909
 C         2.423549         0.056847         1.413485
 H        -0.732438        -0.212932         1.361293
 H        -0.430696         0.963751         0.005575
 H        -0.624171        -0.819797        -0.427954
 H         4.105908        -1.080802        -0.106868
 H         1.518274        -2.691047        -0.165601
 H         0.979742        -3.180689         2.302027
 H         2.754433        -3.360704         1.961603
 H         2.239001        -1.958802         4.077723
 H         3.646909        -1.671417         2.926271
 H         2.636661         1.144458         1.258129
