19
Iteration:  3498charge 0 multiplicity 1
 C        -0.189285        -0.267996         0.402189
 C         1.261746        -0.559999         0.428975
 O         2.269855        -0.173784        -0.615567
 C         3.106123        -0.884769         0.399951
 C         2.038524        -1.956124         0.561407
 C         1.788960        -2.595834         1.909089
 C         2.347365        -1.643993         3.112761
 O         2.409915        -0.194289         2.839763
 C         2.341548         0.041719         1.423198
 H        -0.500677        -0.097120         1.458832
 H        -0.432249         0.603658        -0.224040
 H        -0.635597        -1.180672        -0.042046
 H         4.215909        -0.845880         0.327309
 H         1.842617        -2.489332        -0.370763
 H         0.646877        -2.829545         2.098461
 H         2.216222        -3.586459         1.932102
 H         1.615357        -1.689785         4.053482
 H         3.446759        -1.957289         3.283670
 H         2.311921         1.159141         1.229155
