19
Iteration:  1045charge 0 multiplicity 1
 C        -0.080137        -0.161800         0.382502
 C         1.370892        -0.439208         0.538643
 O         2.236118        -0.291267        -0.721089
 C         3.079372        -1.004093         0.339145
 C         1.851570        -1.924567         0.571199
 C         1.899129        -2.508310         1.997496
 C         2.458734        -1.666400         3.078916
 O         2.184087        -0.240027         2.887193
 C         2.397014         0.068986         1.435857
 H        -0.570444        -0.400346         1.295988
 H        -0.453344         0.748928        -0.123151
 H        -0.508321        -0.973677        -0.209475
 H         4.066865        -1.126706        -0.026131
 H         1.390767        -2.448888        -0.302331
 H         0.844565        -2.950055         2.322802
 H         2.508022        -3.383567         1.958810
 H         2.013163        -1.938667         4.095666
 H         3.663814        -1.793132         3.071908
 H         2.536727         1.183879         1.318849
