19
Iteration:  4807charge 0 multiplicity 1
 C        -0.249062        -0.288141         0.318070
 C         1.264519        -0.464379         0.466259
 O         2.340549        -0.222654        -0.681077
 C         3.022810        -0.870059         0.436285
 C         1.951152        -1.888957         0.602601
 C         1.760881        -2.535855         1.965444
 C         2.559451        -1.703390         3.089553
 O         2.348131        -0.267831         2.821639
 C         2.358023         0.065914         1.454791
 H        -0.657500        -1.165102         0.683642
 H        -0.761839         0.596722         0.695319
 H        -0.470594        -0.397055        -0.721186
 H         4.038200        -1.055759         0.263236
 H         1.580438        -2.470657        -0.202221
 H         0.632387        -2.520031         2.139932
 H         2.147122        -3.509230         2.245976
 H         2.218119        -1.848143         4.185672
 H         3.690987        -1.926859         3.214773
 H         2.492571         1.155681         1.431397
