19
Iteration:  2387
 C        -0.105592        -0.157974         0.315060
 C         1.272600        -0.563798         0.537562
 O         2.318994        -0.200094        -0.598061
 C         3.019915        -0.974930         0.393362
 C         1.836937        -1.898821         0.555600
 C         1.904580        -2.596146         1.931607
 C         2.498769        -1.637107         3.058355
 O         2.188931        -0.191903         2.851945
 C         2.414808         0.016192         1.452770
 H        -0.926137        -0.534766         0.971268
 H        -0.299183         0.951924         0.394645
 H        -0.631458        -0.501030        -0.671179
 H         4.082777        -1.273520         0.183896
 H         1.449999        -2.662328        -0.247490
 H         0.916896        -3.169148         2.394850
 H         2.624915        -3.473907         1.716678
 H         2.207977        -2.057629         4.071652
 H         3.563611        -1.605046         3.006798
 H         2.713393         1.143576         1.373415
