19
Iteration:   588
 C        -0.198678        -0.138375         0.219757
 C         1.234943        -0.596388         0.473310
 O         2.203166        -0.268492        -0.626686
 C         3.132905        -0.821907         0.439752
 C         1.949958        -1.947580         0.695244
 C         1.686494        -2.529777         2.115971
 C         2.572733        -1.689853         2.964791
 O         2.441335        -0.285884         2.777723
 C         2.316734         0.033385         1.454886
 H        -1.007649        -0.516312         0.824035
 H        -0.185637         0.930944         0.344813
 H        -0.397618        -0.546743        -0.741690
 H         4.200197        -0.810414         0.319159
 H         1.868209        -2.625709        -0.157528
 H         0.639486        -2.195879         2.308427
 H         1.866082        -3.620812         2.218653
 H         2.395951        -1.839738         4.035236
 H         3.544208        -1.941230         2.770657
 H         2.362443         1.106685         1.482603
