19
Iteration:  2302
 C        -0.231214        -0.187851         0.250925
 C         1.239726        -0.518682         0.419915
 O         2.253384        -0.143617        -0.606604
 C         3.095838        -0.892988         0.483798
 C         1.965993        -1.972204         0.609044
 C         1.744809        -2.545375         1.997829
 C         2.553912        -1.707789         3.006699
 O         2.314794        -0.293109         2.843795
 C         2.374484         0.015354         1.485327
 H        -0.639098        -0.142969         1.234377
 H        -0.101270         0.753321        -0.253757
 H        -0.674718        -0.914289        -0.401649
 H         4.246420        -0.868010         0.275209
 H         1.828383        -2.754821        -0.139543
 H         0.802163        -2.433096         2.520383
 H         2.117683        -3.572957         1.884203
 H         2.077860        -1.890983         3.993913
 H         3.671659        -1.801176         2.920799
 H         2.590657         1.116756         1.315682
