19
Iteration:   280charge 0 multiplicity 1
 C        -0.116067        -0.073351         0.302321
 C         1.264544        -0.646325         0.480340
 O         2.206167        -0.317916        -0.662039
 C         3.115229        -0.779582         0.431457
 C         1.998000        -1.942576         0.656051
 C         1.649968        -2.592642         2.027709
 C         2.548976        -1.647548         3.077972
 O         2.381066        -0.279697         2.792971
 C         2.305606         0.039217         1.391228
 H        -0.543806        -0.130800         1.313187
 H        -0.175877         0.992588        -0.035724
 H        -0.854212        -0.717653        -0.350998
 H         4.232028        -0.833424         0.212901
 H         1.874098        -2.577701        -0.301050
 H         0.543523        -2.473773         2.120040
 H         1.932699        -3.582376         2.091091
 H         2.227717        -1.891415         4.159756
 H         3.740623        -1.894601         3.020910
 H         2.369877         1.168015         1.453228
