19
Iteration:  1977
 C        -0.239168        -0.287197         0.240723
 C         1.306686        -0.402313         0.531707
 O         2.237359        -0.189690        -0.585845
 C         3.130591        -0.930686         0.297401
 C         1.859806        -1.869474         0.641897
 C         1.758767        -2.538790         2.017028
 C         2.506032        -1.696401         3.076850
 O         2.326519        -0.239433         2.857733
 C         2.471532         0.014441         1.464572
 H        -0.688469        -0.766755         1.163917
 H        -0.632867         0.658435        -0.191584
 H        -0.273535        -0.972595        -0.653033
 H         4.232808        -1.101490         0.043935
 H         1.544697        -2.573490        -0.132467
 H         0.653176        -2.813645         2.162685
 H         2.046388        -3.551165         1.843464
 H         2.098850        -1.883330         4.007675
 H         3.578273        -1.856863         2.915019
 H         2.824535         1.050911         1.440974
