19
Iteration:  3102charge 0 multiplicity 1
 C        -0.147531        -0.069268         0.394416
 C         1.261376        -0.600789         0.426939
 O         2.271909        -0.264148        -0.640998
 C         3.089524        -0.815850         0.428514
 C         2.003984        -1.948695         0.614843
 C         1.965387        -2.673940         1.932099
 C         2.405999        -1.693307         3.058897
 O         2.177033        -0.241657         2.801480
 C         2.275428         0.081942         1.453508
 H        -0.350331        -0.248842         1.463676
 H        -0.111026         1.042684         0.376739
 H        -0.818374        -0.455378        -0.418505
 H         4.170820        -0.983752         0.345356
 H         1.891670        -2.675000        -0.219618
 H         0.985684        -3.201266         2.189641
 H         2.750492        -3.408601         1.790638
 H         1.938119        -1.890440         4.123871
 H         3.625803        -1.871521         2.934113
 H         2.411402         1.212405         1.317867
