19
Iteration:  1886
 C        -0.158305        -0.123441         0.269776
 C         1.300188        -0.461039         0.509493
 O         2.275775        -0.252291        -0.678177
 C         3.039572        -0.958815         0.383989
 C         1.926351        -1.876464         0.723867
 C         1.906844        -2.654338         2.010464
 C         2.558104        -1.649341         3.038481
 O         2.123684        -0.312161         2.813515
 C         2.401702         0.120721         1.478196
 H        -0.775699        -0.159806         1.194659
 H        -0.246816         0.958040        -0.020884
 H        -0.801876        -0.606214        -0.536594
 H         4.000128        -1.386415         0.031789
 H         1.623993        -2.582410        -0.052527
 H         1.020276        -3.178647         2.366200
 H         2.526628        -3.499003         1.889014
 H         2.264997        -1.958573         4.068583
 H         3.566608        -1.750390         2.780714
 H         2.668106         1.218183         1.330179
