19
Iteration:  3158
 C        -0.147085        -0.330478         0.268868
 C         1.290718        -0.457463         0.541613
 O         2.222187        -0.163268        -0.673176
 C         3.113253        -0.828604         0.354413
 C         1.964872        -1.909523         0.585356
 C         1.712353        -2.554587         1.982483
 C         2.496213        -1.697338         2.999765
 O         2.314794        -0.290691         2.911952
 C         2.373938         0.086179         1.534532
 H        -0.805022        -0.808675         0.953020
 H        -0.386835         0.706657        -0.028142
 H        -0.296068        -1.076584        -0.562719
 H         4.170591        -1.002152         0.281155
 H         1.681326        -2.507617        -0.271792
 H         0.712830        -2.609278         2.415189
 H         2.243467        -3.552315         2.004699
 H         2.260963        -2.003420         4.101297
 H         3.498991        -1.988809         2.886645
 H         2.611221         1.204755         1.384335
