19
Iteration:  3275charge 0 multiplicity 1
 C        -0.212934        -0.076374         0.448451
 C         1.250383        -0.526156         0.412176
 O         2.344161        -0.239580        -0.686714
 C         3.060071        -0.919622         0.398572
 C         1.930529        -1.902245         0.582760
 C         2.035914        -2.548749         1.957524
 C         2.471194        -1.625795         3.094027
 O         2.132606        -0.326072         2.842571
 C         2.291339        -0.013806         1.416196
 H        -0.703259        -0.353654         1.392739
 H        -0.193623         0.980404         0.179077
 H        -0.700056        -0.740604        -0.238567
 H         4.124851        -1.081417         0.553441
 H         1.795173        -2.615276        -0.284398
 H         1.005382        -2.972334         2.092766
 H         2.762512        -3.271294         1.729391
 H         2.115402        -2.060683         4.011962
 H         3.551392        -1.726236         3.236735
 H         2.624539         1.034423         1.298214
