19
Iteration:  4566charge 0 multiplicity 1
 C        -0.226900        -0.183544         0.108061
 C         1.191461        -0.615346         0.472262
 O         2.211833        -0.306952        -0.616127
 C         3.081993        -0.793592         0.452770
 C         1.879350        -1.946496         0.683825
 C         1.807738        -2.569965         2.075755
 C         2.645254        -1.638546         2.983725
 O         2.412957        -0.266173         2.862966
 C         2.278244         0.079277         1.487799
 H        -0.944538        -0.714138         0.750807
 H        -0.313034         0.940859         0.217371
 H        -0.234660        -0.373035        -0.969124
 H         4.154348        -0.870438         0.327048
 H         1.895913        -2.694566        -0.137494
 H         0.791506        -2.278518         2.514827
 H         2.069686        -3.587269         2.214561
 H         2.340669        -1.796692         4.044611
 H         3.673822        -1.815628         2.832690
 H         2.617043         1.162298         1.274166
