19
Iteration:  1177
 C        -0.222658        -0.084793         0.187288
 C         1.225851        -0.429042         0.463443
 O         2.246175        -0.322765        -0.633523
 C         3.032091        -0.914809         0.423495
 C         1.901155        -1.948326         0.664755
 C         1.899527        -2.625601         2.067556
 C         2.585224        -1.662935         3.041735
 O         2.254196        -0.252099         2.844310
 C         2.383075         0.090547         1.445487
 H        -0.774687        -0.849251         0.789268
 H        -0.511333         0.968486         0.500741
 H        -0.439297        -0.209649        -0.894374
 H         4.046465        -1.205778         0.232203
 H         1.792438        -2.677220        -0.197802
 H         0.841638        -3.037528         2.306533
 H         2.407266        -3.560233         2.018967
 H         2.389773        -1.809354         4.159685
 H         3.763182        -1.884653         2.957757
 H         2.757075         1.154467         1.416502
