19
Iteration:  2001
 C        -0.175668        -0.226238         0.305314
 C         1.292676        -0.551033         0.426937
 O         2.252163        -0.147160        -0.662356
 C         3.054945        -0.874512         0.466596
 C         1.926775        -1.922307         0.635132
 C         1.808028        -2.522116         2.041165
 C         2.482942        -1.720610         3.072874
 O         2.373909        -0.273177         2.819288
 C         2.346787         0.032088         1.410846
 H        -0.596075        -0.596899         1.260953
 H        -0.085446         0.876581         0.155084
 H        -0.612284        -0.511690        -0.639574
 H         4.076057        -1.159617         0.201756
 H         1.734203        -2.624449        -0.250626
 H         0.732597        -2.713252         2.261215
 H         2.014402        -3.658364         2.039227
 H         1.888896        -1.902486         4.007447
 H         3.566149        -1.896896         3.029332
 H         2.366441         1.123110         1.303705
