19
Iteration:   477charge 0 multiplicity 1
 C        -0.174036        -0.063598         0.359637
 C         1.282222        -0.528413         0.447711
 O         2.213517        -0.245109        -0.685483
 C         3.112999        -0.929494         0.358160
 C         2.001953        -1.980135         0.662551
 C         1.804537        -2.586070         2.060127
 C         2.479331        -1.656396         3.104388
 O         2.252563        -0.287049         2.763532
 C         2.396709         0.063622         1.385939
 H        -0.461905         0.129229         1.372357
 H        -0.254361         0.875433        -0.197372
 H        -0.828787        -0.909196         0.105143
 H         4.157060        -0.965708         0.238319
 H         1.834709        -2.723482        -0.156085
 H         0.684263        -2.635120         2.224148
 H         2.328117        -3.588978         2.117385
 H         1.979260        -1.879246         4.111025
 H         3.670588        -1.957505         3.220104
 H         2.522864         1.123385         1.351495
