19
Iteration:  3375
 C        -0.181208        -0.330943         0.063458
 C         1.252890        -0.500002         0.619944
 O         2.200653        -0.169018        -0.588539
 C         3.083575        -0.811424         0.439229
 C         1.893881        -1.903185         0.673778
 C         1.757732        -2.542037         2.022340
 C         2.605205        -1.723953         2.957202
 O         2.370039        -0.289077         2.879755
 C         2.372259         0.083590         1.512224
 H        -0.865206        -0.731477         0.774006
 H        -0.422308         0.726300        -0.094072
 H        -0.196545        -0.805493        -0.939410
 H         4.103165        -0.923332         0.153938
 H         1.694142        -2.473325        -0.261609
 H         0.661261        -2.549473         2.326699
 H         1.932309        -3.611362         2.052499
 H         2.262526        -2.059568         3.984717
 H         3.704082        -1.901791         2.860631
 H         2.520394         1.188381         1.221931
