19
Iteration:   357
 C        -0.089882        -0.143682         0.282887
 C         1.306758        -0.428826         0.521222
 O         2.264120        -0.264122        -0.641656
 C         3.019056        -0.999658         0.356938
 C         1.774663        -1.904100         0.670632
 C         1.840297        -2.686590         2.059219
 C         2.553733        -1.665419         3.059131
 O         2.287506        -0.149688         2.790023
 C         2.379238         0.038393         1.435834
 H        -0.753424        -0.768859         0.870424
 H        -0.385549         0.911844         0.478515
 H        -0.352757        -0.531118        -0.756178
 H         4.094490        -1.215943         0.227737
 H         1.493272        -2.635726        -0.155290
 H         0.791583        -2.857037         2.317162
 H         2.359805        -3.589742         1.806253
 H         2.288051        -1.823167         4.135268
 H         3.541708        -1.704730         2.944294
 H         2.624889         1.108308         1.314582
