19
Iteration:  4635charge 0 multiplicity 1
 C        -0.126326        -0.321294         0.387048
 C         1.340185        -0.554763         0.429228
 O         2.230831        -0.181125        -0.640164
 C         3.065110        -0.903302         0.420975
 C         1.927535        -1.932667         0.603944
 C         1.745425        -2.602887         2.012829
 C         2.470163        -1.594615         3.026013
 O         2.337318        -0.157346         2.838587
 C         2.384331         0.005865         1.417119
 H        -0.653337        -0.691840         1.318018
 H        -0.435754         0.784294         0.293121
 H        -0.537640        -0.755325        -0.580238
 H         4.065753        -1.090935         0.045048
 H         1.776137        -2.513403        -0.346556
 H         0.670256        -2.626460         2.194668
 H         2.241416        -3.562698         2.104697
 H         2.054789        -1.839586         4.016815
 H         3.528924        -1.720372         3.039977
 H         2.460434         1.070128         1.359702
