19
Iteration:   999
 C        -0.083331        -0.073422         0.284982
 C         1.246754        -0.617205         0.437803
 O         2.201164        -0.295861        -0.640594
 C         3.077271        -0.809401         0.429572
 C         1.919856        -2.025476         0.606322
 C         1.776118        -2.601313         2.041308
 C         2.587822        -1.645808         3.113499
 O         2.359978        -0.255061         2.804844
 C         2.227999         0.063762         1.420720
 H        -0.838076        -0.543976         0.903955
 H        -0.041920         1.002766         0.559156
 H        -0.497138        -0.093581        -0.738601
 H         4.159367        -0.880594         0.499391
 H         1.929791        -2.718099        -0.234525
 H         0.609978        -2.672305         2.151127
 H         2.158784        -3.631290         2.075195
 H         2.335630        -1.790876         4.243654
 H         3.771290        -1.724355         2.822722
 H         2.337171         1.157158         1.264115
