19
Iteration:  4155charge 0 multiplicity 1
 C        -0.137776        -0.015108         0.187650
 C         1.234397        -0.567485         0.480174
 O         2.184224        -0.301381        -0.566725
 C         3.008022        -0.973489         0.360782
 C         1.934529        -2.058746         0.660908
 C         2.028076        -2.647414         2.127606
 C         2.607154        -1.547896         3.058154
 O         2.114054        -0.236837         2.805037
 C         2.386414         0.071847         1.407631
 H        -0.931526        -0.345096         0.843502
 H        -0.137871         1.112310         0.316015
 H        -0.557162        -0.227524        -0.819117
 H         4.094062        -1.143914         0.081544
 H         1.801293        -2.654729        -0.263558
 H         1.041791        -2.831797         2.637650
 H         2.341319        -3.631282         2.067284
 H         2.468611        -1.652895         4.183713
 H         3.680572        -1.459876         2.636734
 H         2.622283         1.088649         1.298115
