19
Iteration:   253charge 0 multiplicity 1
 C        -0.195633        -0.188143         0.259164
 C         1.284809        -0.464191         0.480892
 O         2.293154        -0.167115        -0.676374
 C         3.035378        -1.012843         0.382468
 C         1.867923        -1.884350         0.673276
 C         1.775567        -2.502533         2.031854
 C         2.594938        -1.653325         3.094314
 O         2.264798        -0.282208         2.847687
 C         2.422603        -0.007542         1.419439
 H        -0.603505         0.072945         1.261288
 H        -0.498666         0.534209        -0.483257
 H        -0.631297        -1.082236        -0.061562
 H         4.015149        -1.331972         0.075125
 H         1.558275        -2.577606        -0.076084
 H         0.722378        -2.669704         2.234694
 H         2.252350        -3.577248         1.967967
 H         2.295425        -2.019982         4.032892
 H         3.604205        -1.769771         2.985408
 H         2.866827         0.961895         1.411787
