19
Iteration:  3312charge 0 multiplicity 1
 C        -0.077687        -0.228886         0.406656
 C         1.297745        -0.570148         0.603883
 O         2.235758        -0.223684        -0.689776
 C         3.139857        -0.753117         0.314243
 C         2.052237        -1.892658         0.651414
 C         1.794659        -2.596382         1.961382
 C         2.414789        -1.714950         3.037301
 O         2.197987        -0.293639         2.799076
 C         2.318886         0.051267         1.425973
 H        -0.579306        -0.180568         1.378136
 H        -0.170231         0.832439         0.064897
 H        -0.659503        -0.853805        -0.363780
 H         4.193815        -0.725817         0.044109
 H         1.922269        -2.559730        -0.185523
 H         0.686189        -2.856814         2.124404
 H         2.344826        -3.483481         2.117593
 H         1.996311        -1.861506         4.108408
 H         3.574145        -1.950552         2.882154
 H         2.398384         1.163803         1.453882
