19
Iteration:   969charge 0 multiplicity 1
 C        -0.233611        -0.204783         0.201955
 C         1.304234        -0.429891         0.494337
 O         2.210033        -0.242546        -0.622621
 C         3.060933        -0.973929         0.392756
 C         1.873668        -1.909449         0.651559
 C         1.803682        -2.507522         2.034531
 C         2.613849        -1.653153         3.080841
 O         2.301691        -0.319124         2.834947
 C         2.410372         0.095207         1.455435
 H        -0.823391        -0.887737         0.749103
 H        -0.574235         0.843676         0.225627
 H        -0.471037        -0.448455        -0.831246
 H         4.081322        -1.263806         0.310584
 H         1.722985        -2.660225        -0.169094
 H         0.663607        -2.598316         2.247789
 H         2.057851        -3.538159         2.045396
 H         2.504988        -1.937532         4.148931
 H         3.699799        -1.836063         2.899017
 H         2.886541         1.108461         1.428564
