19
Iteration:  4593
 C        -0.191614        -0.318604         0.133435
 C         1.220734        -0.512824         0.402616
 O         2.191076        -0.217842        -0.667653
 C         3.055630        -0.803233         0.405756
 C         1.889788        -1.871862         0.693885
 C         1.707490        -2.531096         2.113239
 C         2.590875        -1.694810         3.163078
 O         2.476164        -0.318936         2.811386
 C         2.325371         0.130141         1.481534
 H        -0.633019        -1.135396         0.746241
 H        -0.485994         0.737085         0.300619
 H        -0.326862        -0.559700        -0.951451
 H         4.151795        -1.067225         0.222962
 H         1.998444        -2.647225        -0.110313
 H         0.678806        -2.434784         2.430311
 H         1.949097        -3.642385         2.080996
 H         2.401723        -1.663801         4.243909
 H         3.680848        -2.097876         2.916984
 H         2.663550         1.121670         1.284547
