19
Iteration:  2764charge 0 multiplicity 1
 C        -0.129517        -0.182478         0.345545
 C         1.290524        -0.461572         0.474515
 O         2.225310        -0.170251        -0.668468
 C         3.153005        -0.895304         0.387847
 C         1.935768        -1.905302         0.613475
 C         1.906324        -2.632784         2.014243
 C         2.482677        -1.726032         3.062668
 O         2.130965        -0.272577         2.819991
 C         2.431927         0.037483         1.445956
 H        -0.882957        -0.861223         0.840289
 H        -0.454337         0.881697         0.494425
 H        -0.622915        -0.485092        -0.599516
 H         4.276716        -0.950444         0.186519
 H         1.545002        -2.663326        -0.078276
 H         0.840989        -2.750400         2.211890
 H         2.372993        -3.578851         1.986426
 H         2.076185        -1.714150         4.112821
 H         3.563752        -1.897563         3.073463
 H         2.669469         1.089078         1.400492
