19
Iteration:  1251charge 0 multiplicity 1
 C        -0.089177        -0.237890         0.357343
 C         1.262485        -0.464734         0.494424
 O         2.326283        -0.243032        -0.663111
 C         3.050301        -0.921090         0.435747
 C         1.810645        -1.883030         0.681444
 C         1.760698        -2.531569         2.004486
 C         2.516096        -1.641761         3.063040
 O         2.290368        -0.269329         2.736373
 C         2.386617         0.042146         1.408228
 H        -0.476975        -0.698045         1.286234
 H        -0.427790         0.784137         0.028406
 H        -0.453464        -0.996043        -0.390961
 H         4.069570        -1.099802         0.113526
 H         1.648502        -2.427090        -0.242091
 H         0.937070        -2.996569         2.430356
 H         2.332693        -3.458649         1.773572
 H         2.037517        -1.798929         4.111102
 H         3.502298        -1.815194         3.122190
 H         2.527625         1.153648         1.441329
