19
Iteration:  3983
 C        -0.124230         0.002364         0.314757
 C         1.205711        -0.590801         0.467782
 O         2.287335        -0.253057        -0.674086
 C         3.020645        -0.971573         0.411634
 C         1.953695        -2.011700         0.552643
 C         1.980861        -2.583810         2.125995
 C         2.698644        -1.546543         3.072052
 O         2.068733        -0.291217         2.803028
 C         2.260765         0.007668         1.411842
 H        -0.548824         0.084319         1.270351
 H        -0.232181         0.855633        -0.338937
 H        -0.822196        -0.579215        -0.268866
 H         4.128175        -1.203340         0.384431
 H         1.795661        -2.887365        -0.128342
 H         0.941281        -2.676614         2.457531
 H         2.334211        -3.638885         2.054057
 H         2.380779        -1.714186         4.093918
 H         3.943913        -1.464380         3.106713
 H         2.356472         1.050949         1.207691
