19
Iteration:   509charge 0 multiplicity 1
 C        -0.036155         0.029308         0.381906
 C         1.285076        -0.617576         0.466903
 O         2.147660        -0.358329        -0.684024
 C         3.095952        -0.858683         0.367825
 C         2.022483        -2.011229         0.643990
 C         1.821196        -2.547539         2.022348
 C         2.481320        -1.641289         3.078755
 O         2.259135        -0.251443         2.808366
 C         2.314808         0.042193         1.390047
 H        -0.429848        -0.261660         1.314427
 H        -0.085727         1.077234         0.221794
 H        -0.703417        -0.335732        -0.370324
 H         4.147655        -0.828067         0.226497
 H         1.805553        -2.732190        -0.170581
 H         0.819194        -2.971799         2.067084
 H         2.424990        -3.523830         1.997383
 H         1.974391        -1.789046         4.065436
 H         3.489140        -1.921193         3.200164
 H         2.166146         1.085429         1.418437
