19
Iteration:  1667charge 0 multiplicity 1
 C        -0.160993        -0.239593         0.307167
 C         1.277850        -0.430008         0.491919
 O         2.280585        -0.227949        -0.639867
 C         3.094183        -0.952382         0.361713
 C         1.841313        -1.849269         0.604482
 C         1.854744        -2.556013         1.992060
 C         2.552026        -1.672959         3.092388
 O         2.157858        -0.254967         2.827496
 C         2.461144         0.033830         1.432097
 H        -0.707975        -0.401967         1.235758
 H        -0.529153         0.765276         0.069269
 H        -0.574855        -1.083857        -0.238393
 H         4.060902        -1.373624         0.255138
 H         1.688246        -2.484331        -0.236176
 H         0.843475        -2.773411         2.385378
 H         2.454935        -3.470271         1.703187
 H         2.203270        -1.927421         4.134385
 H         3.574329        -1.774671         3.117501
 H         2.860103         1.043552         1.373209
