19
Iteration:  3126charge 0 multiplicity 1
 C        -0.242534        -0.134414         0.373212
 C         1.239692        -0.539379         0.460968
 O         2.282159        -0.170832        -0.648460
 C         3.079973        -0.819216         0.414132
 C         2.060173        -1.958947         0.575200
 C         1.906869        -2.617978         2.016640
 C         2.458146        -1.690883         3.092799
 O         2.247762        -0.315458         2.775644
 C         2.305431         0.029534         1.416964
 H        -0.648164        -0.315313         1.324436
 H        -0.259082         0.943869         0.249807
 H        -0.612246        -0.631767        -0.557613
 H         4.146243        -0.922344         0.346161
 H         1.920767        -2.641239        -0.237540
 H         0.837382        -2.734949         2.182337
 H         2.460175        -3.632244         2.058402
 H         1.734261        -1.805394         3.990474
 H         3.688349        -2.070470         3.299885
 H         2.494282         1.155906         1.291017
