19
Iteration:  3792
 C        -0.150054         0.047179         0.195913
 C         1.214208        -0.480995         0.512083
 O         2.168365        -0.369717        -0.627969
 C         3.063788        -0.839307         0.446144
 C         2.005869        -1.973127         0.710651
 C         2.013737        -2.749005         2.105180
 C         2.584519        -1.638836         2.996690
 O         2.088994        -0.319707         2.768683
 C         2.330593         0.114437         1.417337
 H        -0.529047         0.368026         1.224631
 H         0.034106         0.788611        -0.572593
 H        -0.885338        -0.562963        -0.310621
 H         4.120651        -1.037867         0.289578
 H         1.741887        -2.645534        -0.115231
 H         1.055147        -3.141735         2.264083
 H         2.742273        -3.480860         1.931669
 H         2.631110        -1.806181         4.145322
 H         3.712556        -1.701882         3.036620
 H         2.427590         1.269098         1.433025
