19
Iteration:  2641charge 0 multiplicity 1
 C        -0.143144        -0.216041         0.209619
 C         1.215409        -0.630573         0.438829
 O         2.361613        -0.155565        -0.626840
 C         2.999811        -0.757002         0.483592
 C         1.907268        -1.937180         0.621712
 C         1.734495        -2.508277         1.997901
 C         2.583839        -1.775143         3.028761
 O         2.394647        -0.336265         2.814897
 C         2.222047         0.080468         1.499170
 H        -0.678941        -0.048708         1.230252
 H        -0.142335         0.763763        -0.327612
 H        -0.841348        -0.893330        -0.326341
 H         4.118599        -0.936819         0.610357
 H         2.002016        -2.584499        -0.259603
 H         0.753151        -2.468732         2.370722
 H         2.005373        -3.593350         2.078756
 H         2.360244        -1.975328         4.105977
 H         3.724452        -1.847608         2.855192
 H         2.300124         1.167149         1.481473
