19
Iteration:   710charge 0 multiplicity 1
 C        -0.064584        -0.074130         0.334762
 C         1.246507        -0.618385         0.514772
 O         2.183514        -0.312868        -0.607063
 C         3.029154        -0.798240         0.395528
 C         1.979835        -1.969700         0.620505
 C         1.803713        -2.541693         2.038728
 C         2.499362        -1.668230         3.039476
 O         2.289699        -0.310702         2.749778
 C         2.376834         0.074379         1.424046
 H        -0.777653         0.004292         1.188162
 H         0.049712         0.984570         0.073946
 H        -0.663855        -0.646905        -0.324160
 H         4.169740        -1.016297         0.244878
 H         2.012166        -2.736726        -0.170663
 H         0.616442        -2.595404         2.137573
 H         2.294975        -3.640950         1.924314
 H         2.103032        -1.773294         4.055533
 H         3.743916        -1.854063         3.185376
 H         2.362069         1.187870         1.172574
