19
Iteration:   275charge 0 multiplicity 1
 C        -0.161398        -0.099098         0.307305
 C         1.277230        -0.576344         0.450932
 O         2.204132        -0.315415        -0.643928
 C         3.099747        -0.818801         0.416667
 C         1.989165        -1.980411         0.615017
 C         1.693132        -2.552197         2.041003
 C         2.570510        -1.662764         3.073443
 O         2.354188        -0.287574         2.794478
 C         2.344005         0.068782         1.422102
 H        -0.521734        -0.025991         1.352524
 H        -0.190780         0.879436        -0.164661
 H        -0.729386        -0.692270        -0.337940
 H         4.173709        -0.861963         0.314589
 H         1.913259        -2.599841        -0.255345
 H         0.618552        -2.451160         2.199632
 H         1.856643        -3.712165         2.199870
 H         2.177933        -1.876729         4.028192
 H         3.556285        -1.922166         3.044575
 H         2.401383         1.145182         1.474427
