19
Iteration:  3650charge 0 multiplicity 1
 C        -0.199820        -0.151778         0.291149
 C         1.289689        -0.539247         0.485128
 O         2.214215        -0.267942        -0.626262
 C         3.093958        -0.865798         0.405539
 C         1.929911        -1.944216         0.643898
 C         1.878472        -2.682396         1.973804
 C         2.451415        -1.610167         3.065496
 O         2.267400        -0.197546         2.819978
 C         2.382095         0.062645         1.463425
 H        -0.897213        -0.910915         0.700837
 H        -0.258041         0.858753         0.646166
 H        -0.255423        -0.067418        -0.797094
 H         4.102101        -1.081145         0.100421
 H         1.795650        -2.620155        -0.184205
 H         0.772026        -3.154026         2.252030
 H         2.769068        -3.484634         2.047470
 H         2.201467        -1.766762         4.154532
 H         3.461798        -1.927785         3.026018
 H         2.623178         1.166062         1.201025
