19
Iteration:  1370
 C        -0.138603        -0.162824         0.210688
 C         1.317253        -0.407704         0.469373
 O         2.271171        -0.178650        -0.668592
 C         3.066299        -1.000045         0.423818
 C         1.763877        -1.959202         0.691012
 C         1.894770        -2.575460         2.109845
 C         2.575455        -1.609802         3.016370
 O         2.174895        -0.283365         2.834393
 C         2.415238         0.007675         1.431953
 H        -0.661422        -0.666516         1.067874
 H        -0.542031         0.871261         0.306258
 H        -0.668329        -0.521514        -0.648466
 H         4.093063        -1.229712         0.082553
 H         1.334916        -2.636218        -0.038370
 H         0.976793        -3.157706         2.447189
 H         2.679769        -3.456764         2.038153
 H         2.381870        -1.877314         4.120245
 H         3.698394        -1.675795         2.782635
 H         2.768812         1.025978         1.138863
