19
Iteration:   677charge 0 multiplicity 1
 C        -0.156870        -0.023454         0.388118
 C         1.268634        -0.563258         0.325664
 O         2.241985        -0.286912        -0.684032
 C         3.038460        -0.935340         0.362228
 C         1.971245        -1.957085         0.638748
 C         1.850940        -2.607799         2.037913
 C         2.466098        -1.654847         3.090402
 O         2.199253        -0.267229         2.830692
 C         2.410784         0.082162         1.451708
 H        -0.283756         0.140925         1.487266
 H        -0.405415         0.997016         0.042489
 H        -0.884916        -0.747009         0.100783
 H         4.159596        -1.146616         0.237189
 H         2.095769        -2.736535        -0.131711
 H         0.716813        -2.896196         2.284578
 H         2.584359        -3.535564         1.917807
 H         2.269757        -1.847242         4.145063
 H         3.652067        -1.816780         2.904370
 H         2.770391         1.157163         1.307378
