19
Iteration:  1127
 C        -0.207879        -0.200548         0.217863
 C         1.287123        -0.529123         0.510823
 O         2.197505        -0.192112        -0.687923
 C         3.087094        -0.865511         0.418088
 C         2.006427        -1.974509         0.684283
 C         1.748276        -2.554374         2.075863
 C         2.537797        -1.665255         3.022807
 O         2.354882        -0.284755         2.819035
 C         2.348178         0.026793         1.479181
 H        -0.908724        -0.217920         1.079293
 H        -0.229672         0.859035        -0.059288
 H        -0.499902        -0.760548        -0.672813
 H         4.196414        -0.918752         0.207183
 H         1.761862        -2.651484        -0.126185
 H         0.689779        -2.402089         2.188453
 H         1.967068        -3.668045         2.205548
 H         2.349350        -1.842645         4.078189
 H         3.721738        -1.930917         2.897110
 H         2.366198         1.102164         1.384560
