19
Iteration:  4484charge 0 multiplicity 1
 C        -0.153354        -0.131323         0.446288
 C         1.335386        -0.615771         0.468482
 O         2.238292        -0.317785        -0.670601
 C         3.094571        -0.815162         0.301355
 C         2.017714        -1.977735         0.577010
 C         1.866817        -2.615952         2.022030
 C         2.385218        -1.602797         3.095861
 O         2.227633        -0.224858         2.804961
 C         2.357213         0.083203         1.407895
 H        -0.468826         0.210587         1.435538
 H        -0.180440         0.730161        -0.190874
 H        -0.924327        -0.841778         0.178598
 H         4.204014        -0.987390        -0.047004
 H         1.843498        -2.743747        -0.182364
 H         0.885147        -3.014927         2.291800
 H         2.518774        -3.597077         2.165628
 H         1.929116        -1.576501         4.067766
 H         3.417316        -1.742407         3.314901
 H         2.411789         1.139390         1.168809
