19
Iteration:  3257charge 0 multiplicity 1
 C        -0.186078        -0.100376         0.305142
 C         1.243812        -0.491088         0.466597
 O         2.326924        -0.236710        -0.669580
 C         3.081278        -0.894470         0.383974
 C         1.887999        -1.936484         0.620727
 C         2.010732        -2.653554         1.983086
 C         2.555025        -1.686815         3.074724
 O         2.130513        -0.265518         2.820359
 C         2.290543         0.084413         1.508154
 H        -0.549150        -0.351170         1.307845
 H        -0.233895         1.023744         0.248025
 H        -0.878721        -0.527456        -0.528667
 H         4.063638        -1.096623        -0.019120
 H         1.659063        -2.581644        -0.218024
 H         1.105215        -3.240666         2.343034
 H         2.703866        -3.540447         1.881738
 H         2.051570        -2.021538         4.082468
 H         3.722057        -1.909998         3.173538
 H         2.368493         1.214364         1.391494
