19
Iteration:   451
 C        -0.195429        -0.261678         0.323442
 C         1.279230        -0.485813         0.492973
 O         2.372446        -0.217817        -0.715738
 C         3.022568        -1.008542         0.425990
 C         1.767915        -1.869200         0.651203
 C         1.781101        -2.567237         1.976236
 C         2.524289        -1.622668         3.013183
 O         2.322869        -0.215376         2.841276
 C         2.426089         0.065541         1.479332
 H        -0.606967         0.114725         1.282746
 H        -0.301281         0.567985        -0.353345
 H        -0.654924        -1.249243         0.196852
 H         4.128132        -1.406997         0.381281
 H         1.384916        -2.498743        -0.173935
 H         0.773097        -2.777808         2.311359
 H         2.511621        -3.474707         1.819776
 H         2.102672        -1.894021         3.961611
 H         3.584740        -1.847926         3.040091
 H         2.621499         1.188205         1.358782
