19
Iteration:  4896
 C        -0.105540        -0.114062         0.305622
 C         1.322457        -0.472853         0.471113
 O         2.230110        -0.268651        -0.672324
 C         3.080763        -0.885592         0.474021
 C         1.879874        -1.882954         0.715503
 C         1.923836        -2.641141         2.037346
 C         2.564562        -1.698172         2.974783
 O         2.183767        -0.255269         2.767416
 C         2.299871         0.064772         1.487935
 H        -0.642160        -0.658611         1.067169
 H        -0.344587         0.912315         0.135344
 H        -0.402796        -0.642246        -0.610789
 H         4.076560        -1.181114         0.194085
 H         1.522692        -2.590385        -0.079478
 H         0.818874        -2.914831         2.226380
 H         2.635477        -3.448083         1.807907
 H         2.049912        -1.925551         3.978588
 H         3.600504        -1.966507         3.094768
 H         2.405878         1.151515         1.255688
