19
Iteration:  4079charge 0 multiplicity 1
 C        -0.087950        -0.390232         0.290745
 C         1.325130        -0.624815         0.493553
 O         2.162063        -0.192311        -0.586496
 C         3.068430        -0.796658         0.311165
 C         1.954940        -1.984711         0.663841
 C         1.661920        -2.438693         2.028214
 C         2.480173        -1.615657         3.101202
 O         2.456921        -0.195174         2.770251
 C         2.393896         0.028064         1.433378
 H        -0.678648        -0.973625         1.028413
 H        -0.485241         0.705681         0.264319
 H        -0.450719        -0.658736        -0.763260
 H         4.174330        -1.063833         0.131132
 H         1.781588        -2.517897        -0.301559
 H         0.520062        -2.499270         2.338939
 H         1.972464        -3.492984         2.097115
 H         1.797564        -1.717130         3.993429
 H         3.423835        -1.983183         3.272251
 H         2.426583         1.068032         1.320098
