19
Iteration:  4803charge 0 multiplicity 1
 C        -0.210936        -0.310271         0.304912
 C         1.240796        -0.507682         0.437459
 O         2.346468        -0.204851        -0.666604
 C         2.995182        -0.848651         0.416180
 C         1.911438        -1.906442         0.618136
 C         1.742857        -2.476925         1.956012
 C         2.581098        -1.720025         3.115612
 O         2.360548        -0.244895         2.818209
 C         2.365984         0.047146         1.494702
 H        -0.688937        -1.238462         0.793328
 H        -0.742820         0.611424         0.639983
 H        -0.514311        -0.387762        -0.772750
 H         4.136514        -1.056984         0.356849
 H         1.679805        -2.550192        -0.258187
 H         0.767738        -2.379518         2.306536
 H         2.111158        -3.548352         2.043034
 H         2.160187        -2.038435         4.063861
 H         3.606863        -1.867237         3.075744
 H         2.595430         1.121036         1.393558
