19
Iteration:  2219charge 0 multiplicity 1
 C        -0.063263        -0.024805         0.301329
 C         1.259342        -0.630488         0.371732
 O         2.230550        -0.208203        -0.673524
 C         3.067053        -0.800733         0.417227
 C         1.975125        -2.005981         0.575110
 C         1.864222        -2.547169         2.095433
 C         2.495526        -1.684800         3.069608
 O         2.257849        -0.343210         2.852682
 C         2.272569         0.002236         1.405118
 H        -0.687323        -0.443709         1.188855
 H        -0.065146         1.092987         0.571491
 H        -0.672565        -0.320408        -0.605724
 H         4.127532        -0.758071         0.194622
 H         1.892506        -2.806675        -0.187914
 H         0.820311        -2.704604         2.479179
 H         2.138052        -3.549322         2.105409
 H         2.288310        -1.850211         4.117659
 H         3.561231        -1.809984         3.167475
 H         2.269533         1.058595         1.454020
