19
Iteration:   735
 C        -0.208222        -0.190702         0.245004
 C         1.299530        -0.404177         0.454660
 O         2.232471        -0.206343        -0.693313
 C         3.110942        -1.009792         0.337822
 C         1.863297        -1.939509         0.606208
 C         1.795911        -2.584356         2.094909
 C         2.525434        -1.685547         3.061397
 O         2.357208        -0.250747         2.914233
 C         2.363379         0.099974         1.488677
 H        -0.858402        -0.637699         1.023124
 H        -0.546861         0.855866         0.089778
 H        -0.580971        -0.756818        -0.668542
 H         4.226195        -1.164354         0.175873
 H         1.548813        -2.664169        -0.151934
 H         0.646908        -2.828082         2.350193
 H         2.318504        -3.535522         2.033763
 H         2.301401        -1.898779         4.098385
 H         3.722287        -1.826352         2.954685
 H         2.720462         1.133830         1.283844
