19
Iteration:   984
 C        -0.207623        -0.109878         0.220668
 C         1.212834        -0.583673         0.488401
 O         2.263914        -0.290375        -0.679775
 C         3.047187        -0.880490         0.397719
 C         1.973069        -1.932392         0.682436
 C         1.783260        -2.521768         2.058847
 C         2.571887        -1.683835         2.967196
 O         2.315468        -0.238702         2.889718
 C         2.379893         0.014241         1.493703
 H        -0.984546        -0.624857         0.899354
 H        -0.299268         0.920915         0.578412
 H        -0.301553        -0.308983        -0.869652
 H         4.084272        -0.972712        -0.077564
 H         1.711872        -2.589616        -0.149829
 H         0.844869        -2.492682         2.448047
 H         2.293899        -3.545620         2.143743
 H         2.267439        -1.926483         3.946735
 H         3.562351        -1.919649         2.856778
 H         2.360463         1.085888         1.345594
