19
Iteration:  2795
 C        -0.221974        -0.270862         0.259523
 C         1.236409        -0.526779         0.403274
 O         2.355076        -0.170393        -0.615650
 C         3.063527        -0.857104         0.504269
 C         1.901973        -1.942695         0.622228
 C         1.796907        -2.536839         1.944441
 C         2.511791        -1.733500         2.953332
 O         2.324890        -0.254409         2.875135
 C         2.317482         0.071362         1.519305
 H        -0.637280        -0.605932         1.248591
 H        -0.490909         0.794528         0.280597
 H        -0.605727        -0.568683        -0.686835
 H         4.206136        -1.023607         0.361582
 H         1.629942        -2.581585        -0.239534
 H         0.809042        -2.753888         2.295293
 H         2.322669        -3.590193         2.015352
 H         2.457912        -1.783653         4.067128
 H         3.630199        -1.862264         2.869531
 H         2.460964         1.121456         1.346095
