19
Iteration:  2246
 C        -0.183212        -0.019723         0.245594
 C         1.244456        -0.494128         0.509541
 O         2.253371        -0.291145        -0.586510
 C         3.040762        -0.914509         0.469975
 C         2.002815        -1.965286         0.596523
 C         1.889946        -2.641635         1.973021
 C         2.500963        -1.661297         3.018263
 O         2.253074        -0.290592         2.821654
 C         2.298732         0.056625         1.427467
 H        -0.694290        -0.191331         1.164041
 H        -0.128180         1.034023         0.159990
 H        -0.663162        -0.592574        -0.548882
 H         4.145780        -0.965330         0.259981
 H         1.861411        -2.618183        -0.286562
 H         0.800357        -2.845600         2.268986
 H         2.476489        -3.670742         1.955304
 H         2.353442        -1.797597         4.116464
 H         3.626280        -1.754423         3.055669
 H         2.514811         1.174567         1.393868
