19
Iteration:  3376
 C        -0.180565        -0.324346         0.058519
 C         1.260304        -0.496161         0.619115
 O         2.190686        -0.177108        -0.586550
 C         3.080820        -0.813707         0.438462
 C         1.907705        -1.901280         0.674440
 C         1.761541        -2.542703         2.027601
 C         2.613133        -1.726445         2.956988
 O         2.366242        -0.288887         2.880664
 C         2.370626         0.083822         1.515706
 H        -0.852191        -0.722152         0.787629
 H        -0.462729         0.728767        -0.105840
 H        -0.188730        -0.781592        -0.968029
 H         4.113999        -0.930434         0.160138
 H         1.675338        -2.461764        -0.249484
 H         0.661233        -2.563428         2.336010
 H         1.913027        -3.570675         2.021822
 H         2.232959        -2.083723         3.980547
 H         3.655070        -1.890641         2.827140
 H         2.516025         1.174889         1.211753
