19
Iteration:  2586
 C        -0.129552        -0.165516         0.291922
 C         1.361578        -0.418779         0.537786
 O         2.236604        -0.217486        -0.644004
 C         3.101244        -0.923625         0.344344
 C         1.844488        -1.850248         0.676007
 C         1.903664        -2.689674         1.966931
 C         2.527076        -1.728988         3.111565
 O         2.128337        -0.281024         2.765847
 C         2.401535         0.081973         1.457207
 H        -0.898016        -0.669962         1.008919
 H        -0.607529         0.845508         0.228903
 H        -0.283382        -0.525480        -0.729211
 H         4.231537        -1.013580         0.249359
 H         1.401723        -2.348676        -0.186410
 H         1.054643        -3.084134         2.399930
 H         2.570208        -3.487071         1.884672
 H         2.145212        -1.958711         4.097093
 H         3.654186        -1.772294         3.184386
 H         2.701745         1.120374         1.467331
