19
Iteration:  2762charge 0 multiplicity 1
 C        -0.122972        -0.174106         0.346910
 C         1.298036        -0.464580         0.474087
 O         2.211566        -0.176014        -0.665764
 C         3.145903        -0.889625         0.371438
 C         1.948923        -1.901387         0.619912
 C         1.895343        -2.640440         2.029105
 C         2.486239        -1.709661         3.057872
 O         2.124482        -0.280483         2.821194
 C         2.430377         0.046377         1.445650
 H        -0.889257        -0.841224         0.803700
 H        -0.378135         0.869189         0.501057
 H        -0.604355        -0.472942        -0.559536
 H         4.297103        -0.911477         0.163191
 H         1.617168        -2.717756        -0.057096
 H         0.851776        -2.763628         2.153935
 H         2.422679        -3.668073         1.975002
 H         2.028508        -1.717949         4.091933
 H         3.512443        -1.965158         3.057101
 H         2.715288         1.087669         1.428600
