19
Iteration:  2836
 C        -0.109855        -0.224144         0.144009
 C         1.278725        -0.569405         0.467883
 O         2.176183        -0.158092        -0.644266
 C         3.080468        -0.757731         0.376878
 C         1.965525        -1.874525         0.649199
 C         1.835194        -2.498980         2.071854
 C         2.579050        -1.765053         3.083339
 O         2.296239        -0.368219         2.876103
 C         2.309748         0.054378         1.490129
 H        -0.896742        -0.136848         0.988051
 H        -0.191478         0.766945        -0.320329
 H        -0.825827        -0.876080        -0.473289
 H         4.190112        -0.818136         0.155170
 H         1.734603        -2.671328        -0.203463
 H         0.703017        -2.421084         2.239371
 H         2.019368        -3.691029         2.012090
 H         2.187752        -2.324532         3.989844
 H         3.762708        -2.155990         3.075228
 H         2.428898         1.167591         1.617415
