19
Iteration:  2198
 C        -0.176724        -0.161345         0.319792
 C         1.266726        -0.510332         0.472951
 O         2.259627        -0.243791        -0.685928
 C         3.102126        -0.925345         0.409268
 C         1.990015        -1.868612         0.660403
 C         1.796664        -2.572096         1.954434
 C         2.541704        -1.732388         3.080509
 O         2.216852        -0.264970         2.824641
 C         2.378223         0.076927         1.454831
 H        -0.833533        -0.669027         1.089700
 H        -0.290779         0.942201         0.488774
 H        -0.429431        -0.580024        -0.676480
 H         4.086896        -1.099401         0.061533
 H         1.716802        -2.525170        -0.206487
 H         0.681938        -2.626461         2.272462
 H         2.099293        -3.559035         2.044129
 H         2.307213        -1.968006         4.120571
 H         3.604913        -1.798062         3.122576
 H         2.582790         1.131846         1.420514
