19
Iteration:   123charge 0 multiplicity 1
 C        -0.206290        -0.234309         0.354122
 C         1.348613        -0.413704         0.391959
 O         2.358927        -0.219140        -0.696720
 C         3.071610        -0.971861         0.351570
 C         1.711285        -1.901356         0.681738
 C         1.733651        -2.518596         2.107437
 C         2.515886        -1.625612         3.068012
 O         2.335724        -0.264765         2.816814
 C         2.441775         0.015731         1.421264
 H        -0.822853        -1.125076         0.746528
 H        -0.472250         0.764016         0.740312
 H        -0.471841        -0.419340        -0.647195
 H         4.147051        -1.127087         0.161587
 H         1.296895        -2.725719         0.047436
 H         0.855009        -3.000600         2.383737
 H         2.360526        -3.360611         1.875688
 H         2.121211        -1.830238         4.018466
 H         3.582907        -1.852861         3.113249
 H         2.829098         1.013657         1.308043
