19
Iteration:  2717charge 0 multiplicity 1
 C        -0.204399        -0.090741         0.316298
 C         1.209123        -0.544594         0.359319
 O         2.284832        -0.214629        -0.649613
 C         3.035520        -0.834885         0.487883
 C         2.049043        -2.003817         0.619552
 C         1.860371        -2.630613         1.934569
 C         2.452536        -1.685347         3.084311
 O         2.308237        -0.279487         2.861912
 C         2.312867         0.025625         1.428685
 H        -0.801347        -0.361023         1.215303
 H        -0.033356         0.980931         0.307933
 H        -0.947658        -0.344915        -0.433107
 H         4.158976        -0.875527         0.245310
 H         2.036697        -2.562944        -0.332302
 H         0.949572        -2.895252         2.313795
 H         2.563282        -3.569453         2.044121
 H         1.911067        -1.877888         4.033867
 H         3.487927        -1.708486         3.278972
 H         2.538924         1.079153         1.343971
