19
Iteration:  3828
 C        -0.163221        -0.129403         0.290124
 C         1.258358        -0.590472         0.445819
 O         2.280946        -0.229425        -0.667081
 C         3.045786        -0.916618         0.453539
 C         1.907213        -1.974578         0.587037
 C         1.950394        -2.496726         2.001618
 C         2.590770        -1.589268         3.162415
 O         2.164863        -0.290534         2.797452
 C         2.308719        -0.003484         1.391280
 H        -0.508479        -0.140028         1.325162
 H        -0.076008         0.948640         0.267460
 H        -0.886474        -0.673597        -0.298994
 H         4.129006        -1.148446         0.219297
 H         1.714192        -2.659499        -0.247719
 H         0.904306        -2.752618         2.443344
 H         2.433707        -3.542187         2.066238
 H         2.130548        -1.953255         4.098547
 H         3.612460        -1.555791         3.026520
 H         2.568188         0.991045         1.212386
