19
Iteration:  2557
 C        -0.220311        -0.079875         0.379923
 C         1.282963        -0.538519         0.367716
 O         2.313366        -0.196567        -0.661494
 C         3.082797        -0.922940         0.436849
 C         1.946723        -1.938212         0.590968
 C         1.920336        -2.615380         1.924243
 C         2.492328        -1.662042         3.115108
 O         2.215320        -0.254600         2.822887
 C         2.304962        -0.007581         1.472218
 H        -0.807088        -0.649176         1.090478
 H        -0.278571         0.990711         0.576354
 H        -0.740040        -0.321397        -0.565352
 H         4.167261        -1.028590         0.461533
 H         1.793369        -2.594000        -0.263712
 H         0.872906        -2.946492         2.358136
 H         2.648234        -3.449745         1.970117
 H         1.953172        -2.045865         3.975523
 H         3.563398        -1.802861         3.139707
 H         2.584524         1.032368         1.410962
