19
Iteration:  4869charge 0 multiplicity 1
 C        -0.261767         0.009622         0.355404
 C         1.223223        -0.587136         0.374655
 O         2.286907        -0.245777        -0.654548
 C         3.075317        -0.907243         0.346533
 C         2.027935        -1.989578         0.630957
 C         1.994256        -2.573448         2.049400
 C         2.496181        -1.661465         3.120598
 O         2.145346        -0.262679         2.830195
 C         2.368361        -0.017361         1.446024
 H        -0.900366        -0.623529         1.031610
 H        -0.208528         1.077119         0.786660
 H        -0.696343         0.107623        -0.665305
 H         4.125231        -1.083736        -0.057049
 H         1.821425        -2.778332        -0.079648
 H         1.014091        -2.917076         2.051215
 H         2.668546        -3.457439         1.989474
 H         1.993847        -1.848927         4.055592
 H         3.580463        -1.852950         3.198158
 H         2.534568         1.019477         1.181303
