19
Iteration:   666
 C        -0.160028        -0.090644         0.420496
 C         1.315571        -0.462468         0.459026
 O         2.267007        -0.280662        -0.681782
 C         3.087143        -0.975424         0.429241
 C         1.859048        -1.975630         0.598699
 C         1.861678        -2.551181         2.009773
 C         2.506699        -1.640415         3.040756
 O         2.177340        -0.265146         2.796303
 C         2.407566         0.068628         1.408106
 H        -0.496190        -0.033315         1.484576
 H        -0.272238         0.760192        -0.256006
 H        -0.716527        -0.857785        -0.071157
 H         4.165877        -1.114094         0.060574
 H         1.592533        -2.591185        -0.289618
 H         0.890092        -3.078190         2.418039
 H         2.540038        -3.524423         2.050663
 H         2.090052        -1.870451         4.020717
 H         3.685131        -1.764687         3.107602
 H         2.808285         1.123702         1.430135
