19
Iteration:  2860charge 0 multiplicity 1
 C        -0.246201        -0.177784         0.187056
 C         1.260432        -0.471062         0.442117
 O         2.289462        -0.157719        -0.615760
 C         2.992187        -0.865378         0.498742
 C         1.971050        -1.946243         0.588247
 C         1.889662        -2.625903         1.977832
 C         2.509407        -1.696592         3.073105
 O         2.326789        -0.272970         2.841534
 C         2.332697         0.047876         1.544558
 H        -0.847815        -0.093266         1.131447
 H        -0.467406         0.746530        -0.399145
 H        -0.759307        -0.990419        -0.321008
 H         4.096686        -1.044088         0.279094
 H         1.696758        -2.619944        -0.255969
 H         0.822690        -2.922270         2.101528
 H         2.476353        -3.665100         1.894835
 H         2.327672        -2.088102         4.090739
 H         3.685394        -1.907273         2.853491
 H         2.534519         1.092752         1.463287
