19
Iteration:  1413
 C        -0.076552        -0.091060         0.288783
 C         1.278593        -0.652904         0.379230
 O         2.134717        -0.369003        -0.690428
 C         3.045087        -0.784603         0.400210
 C         2.064141        -1.912311         0.643933
 C         1.764191        -2.520637         2.057600
 C         2.482176        -1.660167         3.075486
 O         2.367819        -0.254378         2.861942
 C         2.292178         0.049092         1.466660
 H        -0.699577        -0.755844         0.940785
 H         0.064430         0.984496         0.506479
 H        -0.708724        -0.206202        -0.595069
 H         4.163213        -0.762770         0.293394
 H         2.042708        -2.687688        -0.141056
 H         0.615325        -2.594868         2.054445
 H         2.084372        -3.644762         2.029184
 H         2.204946        -1.960457         4.109940
 H         3.461918        -1.897464         2.986206
 H         2.466815         1.156716         1.512370
