19
Iteration:  4090charge 0 multiplicity 1
 C        -0.162235        -0.347069         0.283306
 C         1.276935        -0.579211         0.526139
 O         2.202627        -0.238125        -0.650808
 C         3.107360        -0.828481         0.378009
 C         1.985480        -1.902102         0.648594
 C         1.713387        -2.488678         2.098463
 C         2.418209        -1.619446         3.082321
 O         2.439433        -0.273698         2.762235
 C         2.373960         0.095869         1.398482
 H        -0.793950        -1.009818         0.908964
 H        -0.384520         0.732025         0.602281
 H        -0.321841        -0.674711        -0.794723
 H         4.147931        -0.896508        -0.092760
 H         1.827766        -2.702454        -0.109949
 H         0.546817        -2.439424         2.071050
 H         2.039656        -3.502376         2.341127
 H         2.188950        -1.692635         4.196095
 H         3.409831        -1.946249         3.007930
 H         2.449197         1.142731         1.288163
