19
Iteration:  3674charge 0 multiplicity 1
 C        -0.181249        -0.274825         0.348617
 C         1.311289        -0.577137         0.453653
 O         2.235785        -0.169208        -0.597045
 C         3.046457        -0.872696         0.377307
 C         1.975783        -1.946885         0.609783
 C         1.827390        -2.498497         1.986270
 C         2.435519        -1.684435         3.064021
 O         2.367586        -0.195486         2.789495
 C         2.349673         0.007724         1.431632
 H        -0.697246        -1.125217         0.870150
 H        -0.373188         0.771002         0.641494
 H        -0.368613        -0.271279        -0.725800
 H         4.184879        -0.974879         0.328674
 H         1.862919        -2.726785        -0.154460
 H         0.651557        -2.400332         2.132432
 H         2.194106        -3.615910         2.221262
 H         1.841409        -1.837089         4.034355
 H         3.406645        -2.088945         3.368527
 H         2.404661         1.061296         1.131732
