19
Iteration:  2329charge 0 multiplicity 1
 C        -0.120118        -0.133799         0.314501
 C         1.266497        -0.559954         0.468152
 O         2.256932        -0.284041        -0.660529
 C         3.098557        -0.739943         0.408991
 C         2.062405        -1.993638         0.609918
 C         1.681445        -2.554269         1.995244
 C         2.466701        -1.712620         2.984490
 O         2.406768        -0.286136         2.848000
 C         2.213161         0.071328         1.528183
 H        -0.618895        -0.263547         1.323903
 H        -0.118976         0.934653        -0.048151
 H        -0.535990        -0.769380        -0.523830
 H         4.138239        -0.795038         0.205481
 H         1.933458        -2.704949        -0.221133
 H         0.636861        -2.546751         2.365783
 H         2.039518        -3.714200         2.067983
 H         2.139991        -1.922704         4.011755
 H         3.538946        -1.964084         2.833686
 H         2.142837         1.132072         1.456776
