19
Iteration:  1059charge 0 multiplicity 1
 C        -0.109666        -0.272549         0.386020
 C         1.339530        -0.442462         0.419715
 O         2.215194        -0.220882        -0.658173
 C         3.041745        -0.991818         0.362382
 C         1.876217        -1.836437         0.692928
 C         1.852215        -2.598765         1.943874
 C         2.438531        -1.603837         3.026383
 O         2.216849        -0.234937         2.796390
 C         2.438274         0.056552         1.494798
 H        -0.386706        -0.109692         1.463244
 H        -0.220048         0.660889        -0.143886
 H        -0.610266        -1.086952        -0.133684
 H         4.057098        -1.421899         0.206456
 H         1.694011        -2.614735        -0.090338
 H         0.801295        -2.904681         2.218904
 H         2.438315        -3.549076         1.872400
 H         2.052484        -1.805955         3.985733
 H         3.664903        -1.802999         3.241352
 H         3.001182         0.997401         1.435832
