19
Iteration:  3033charge 0 multiplicity 1
 C        -0.164080        -0.235098         0.196412
 C         1.236817        -0.556995         0.440442
 O         2.268631        -0.261276        -0.572883
 C         3.047322        -0.834965         0.532306
 C         1.950339        -1.856444         0.598458
 C         1.780585        -2.555634         1.917505
 C         2.621898        -1.689604         3.011721
 O         2.344039        -0.267966         2.873505
 C         2.245779         0.063220         1.518194
 H        -0.705679        -0.327319         1.229997
 H        -0.280850         0.863235        -0.003956
 H        -0.703024        -0.798637        -0.600324
 H         4.147402        -0.951172         0.358032
 H         1.800987        -2.443782        -0.366345
 H         0.670627        -2.615148         2.138651
 H         2.214663        -3.469908         1.993876
 H         2.310518        -2.034001         3.965233
 H         3.733251        -2.057983         2.791733
 H         2.322160         1.078929         1.294624
