19
Iteration:  2517
 C        -0.154833        -0.180170         0.282192
 C         1.320601        -0.489514         0.450548
 O         2.096150        -0.202464        -0.691981
 C         3.191948        -0.804920         0.493641
 C         2.101248        -1.916326         0.631727
 C         1.742084        -2.554167         2.025655
 C         2.454276        -1.772388         3.032073
 O         2.252167        -0.347130         2.842226
 C         2.386211         0.056540         1.448708
 H        -0.668789        -0.325534         1.233312
 H        -0.307378         0.921397         0.102630
 H        -0.657031        -0.698419        -0.586189
 H         4.231881        -0.819006         0.190871
 H         1.969298        -2.736866        -0.135363
 H         0.698632        -2.566021         2.083980
 H         2.165831        -3.656207         1.982142
 H         2.206954        -1.800753         4.147723
 H         3.601603        -1.982575         2.954242
 H         2.617834         1.176748         1.433638
