19
Iteration:  3958charge 0 multiplicity 1
 C        -0.161194        -0.088679         0.226095
 C         1.223472        -0.518291         0.398119
 O         2.241157        -0.353958        -0.657404
 C         3.073870        -0.860851         0.455999
 C         1.892650        -1.914616         0.728165
 C         1.949202        -2.628887         2.136357
 C         2.608728        -1.638065         2.987900
 O         2.160362        -0.293161         2.815710
 C         2.346985         0.106686         1.409086
 H        -0.687765        -0.254362         1.208864
 H        -0.304181         0.951513        -0.134774
 H        -0.819337        -0.524929        -0.572597
 H         4.185106        -1.018392         0.404216
 H         1.532245        -2.722423         0.085500
 H         0.989564        -3.006974         2.496006
 H         2.621248        -3.419884         1.925423
 H         2.528087        -1.877876         4.112897
 H         3.761699        -1.632590         2.758423
 H         2.492496         1.157755         1.267040
