19
Iteration:  4280charge 0 multiplicity 1
 C        -0.148228        -0.270022         0.400069
 C         1.251771        -0.572306         0.483554
 O         2.278651        -0.307288        -0.668347
 C         3.154180        -0.809023         0.384962
 C         1.948721        -1.937648         0.676388
 C         1.756667        -2.551282         2.008304
 C         2.433381        -1.637862         3.018551
 O         2.356604        -0.224674         2.762810
 C         2.339061         0.110154         1.372257
 H        -0.676933        -0.127176         1.389040
 H        -0.438396         0.718266        -0.011943
 H        -0.663768        -1.104191        -0.161193
 H         4.223617        -1.006184         0.375428
 H         1.912482        -2.662855        -0.148938
 H         0.677973        -2.496548         2.272230
 H         2.149470        -3.561827         2.275992
 H         1.984594        -1.778249         3.995365
 H         3.471048        -1.924667         3.218391
 H         2.310163         1.260235         1.331852
