19
Iteration:  3410
 C        -0.227706        -0.095353         0.149322
 C         1.245228        -0.586975         0.443825
 O         2.319477        -0.212410        -0.683895
 C         3.022024        -0.794141         0.447327
 C         1.911475        -1.917518         0.662652
 C         1.874342        -2.635843         2.109630
 C         2.684154        -1.723111         3.028196
 O         2.256410        -0.305397         2.864676
 C         2.266395         0.030078         1.452167
 H        -1.024323        -0.615491         0.727293
 H        -0.308419         0.968076         0.419218
 H        -0.624486        -0.305077        -0.893054
 H         4.121690        -0.895554         0.501443
 H         1.638281        -2.609405        -0.140344
 H         0.872976        -2.604800         2.706728
 H         2.378054        -3.533474         1.955006
 H         2.280431        -2.012728         4.115203
 H         3.778395        -1.821683         2.973377
 H         2.299122         1.176146         1.408533
