19
Iteration:  3820charge 0 multiplicity 1
 C        -0.149205        -0.063080         0.309083
 C         1.243620        -0.580323         0.435974
 O         2.264171        -0.280652        -0.663400
 C         3.016530        -0.916896         0.426998
 C         1.933098        -1.981905         0.601586
 C         1.988807        -2.539606         2.048870
 C         2.602552        -1.594050         3.053359
 O         2.119938        -0.266220         2.856275
 C         2.299024         0.013462         1.413670
 H        -0.377725        -0.041351         1.365887
 H         0.079712         0.941654        -0.159723
 H        -0.836875        -0.551738        -0.416846
 H         4.114195        -1.155095         0.396047
 H         1.714692        -2.802878        -0.099711
 H         0.917363        -2.934272         2.315069
 H         2.590142        -3.536886         1.831912
 H         2.204561        -1.961731         3.964985
 H         3.724384        -1.545067         3.143317
 H         2.436557         1.074255         1.283122
