19
Iteration:  3615
 C        -0.137884        -0.039124         0.275096
 C         1.262236        -0.523633         0.393446
 O         2.252540        -0.285480        -0.668329
 C         3.038331        -0.871768         0.395513
 C         1.882442        -1.900915         0.673717
 C         1.977377        -2.565479         2.099575
 C         2.667302        -1.671059         3.141118
 O         2.117670        -0.379796         2.764372
 C         2.308079        -0.000227         1.456555
 H        -1.002135        -0.419346         0.787181
 H        -0.258991         1.074193         0.362203
 H        -0.348528        -0.111676        -0.850219
 H         4.089137        -0.978599         0.330026
 H         1.811677        -2.597300        -0.189682
 H         0.802445        -2.936024         2.309198
 H         2.527870        -3.625799         2.047722
 H         2.349227        -1.743190         4.155203
 H         3.746407        -1.538531         3.061062
 H         2.314377         1.167872         1.414883
