19
Iteration:  3468
 C        -0.103761        -0.176943         0.422921
 C         1.297072        -0.496054         0.475594
 O         2.273814        -0.268872        -0.715475
 C         3.067517        -0.856072         0.275400
 C         2.036994        -1.873896         0.670985
 C         1.886044        -2.593883         2.003539
 C         2.414069        -1.667536         3.114844
 O         2.134424        -0.348610         2.782099
 C         2.385735         0.104796         1.442808
 H        -0.496862        -0.409747         1.478053
 H        -0.324147         0.881299         0.116579
 H        -0.584391        -0.755227        -0.363281
 H         4.170072        -1.079239         0.093857
 H         1.786409        -2.388386        -0.253248
 H         0.838393        -2.941583         2.319095
 H         2.390568        -3.541012         1.964129
 H         1.981776        -1.743674         4.105243
 H         3.464513        -1.780871         3.299467
 H         2.370858         1.141040         1.479382
