19
Iteration:  3175charge 0 multiplicity 1
 C        -0.234566        -0.369311         0.185259
 C         1.231041        -0.495158         0.485932
 O         2.320638        -0.147236        -0.533702
 C         3.041946        -0.824986         0.503644
 C         1.911457        -1.859944         0.675208
 C         1.733364        -2.551669         1.979399
 C         2.561017        -1.729225         2.986703
 O         2.367580        -0.296858         2.802371
 C         2.376617         0.086360         1.467499
 H        -0.736385        -0.727101         1.160535
 H        -0.458150         0.714364         0.079134
 H        -0.438064        -0.996959        -0.673981
 H         4.084681        -0.974875         0.093511
 H         1.776387        -2.486854        -0.260143
 H         0.620521        -2.336214         2.062286
 H         2.006283        -3.598454         1.972952
 H         2.315159        -1.945673         4.005057
 H         3.796207        -1.962421         2.712068
 H         2.509421         1.141197         1.339813
