19
Iteration:  2701
 C        -0.215130        -0.122352         0.276343
 C         1.294786        -0.531367         0.428466
 O         2.287158        -0.166678        -0.608798
 C         3.096792        -0.897844         0.394990
 C         1.894217        -1.915253         0.586048
 C         1.907776        -2.612199         2.035672
 C         2.459449        -1.711067         3.083772
 O         2.286408        -0.288675         2.814287
 C         2.303674         0.044553         1.485337
 H        -0.507295        -0.315283         1.297745
 H        -0.468857         0.926659         0.015441
 H        -0.485449        -0.835897        -0.539612
 H         4.137781        -1.059944         0.338672
 H         1.820496        -2.647870        -0.239905
 H         0.761879        -2.930997         2.007949
 H         2.420350        -3.525249         1.945323
 H         2.093720        -1.865983         4.104972
 H         3.627874        -1.863837         3.164998
 H         2.457351         1.143169         1.315287
