19
Iteration:  1253
 C        -0.091774        -0.254019         0.353890
 C         1.281085        -0.451289         0.490576
 O         2.317863        -0.232200        -0.661556
 C         3.062474        -0.916241         0.446545
 C         1.792156        -1.873609         0.695612
 C         1.771108        -2.545048         2.013101
 C         2.499836        -1.649081         3.049196
 O         2.292165        -0.266055         2.736220
 C         2.384724         0.049266         1.397543
 H        -0.434359        -0.695363         1.338245
 H        -0.390908         0.767861        -0.026662
 H        -0.394202        -1.050336        -0.388088
 H         4.033469        -1.116152         0.049777
 H         1.585921        -2.501951        -0.210813
 H         0.891014        -3.015209         2.431591
 H         2.300454        -3.429607         1.795689
 H         2.006854        -1.814307         4.071840
 H         3.591820        -1.846663         3.105974
 H         2.588951         1.150240         1.462989
