19
Iteration:  3739charge 0 multiplicity 1
 C        -0.184538        -0.275170         0.214952
 C         1.206325        -0.512483         0.473161
 O         2.263304        -0.174343        -0.587054
 C         3.078824        -0.875209         0.464267
 C         1.933391        -1.979423         0.596660
 C         1.782629        -2.545647         2.035140
 C         2.529201        -1.672351         2.972823
 O         2.340672        -0.205717         2.860350
 C         2.381349         0.016344         1.467771
 H        -0.843389        -0.098133         1.110345
 H        -0.273555         0.722889        -0.227153
 H        -0.691080        -1.073034        -0.289846
 H         4.085836        -1.222103         0.125017
 H         1.730360        -2.741671        -0.160184
 H         0.629632        -2.503936         2.296133
 H         2.359931        -3.569598         2.003580
 H         2.379313        -1.869121         4.116619
 H         3.583201        -1.753213         2.785506
 H         2.586300         1.110186         1.359245
