19
Iteration:  4446charge 0 multiplicity 1
 C        -0.179661        -0.321017         0.375687
 C         1.256660        -0.548173         0.406883
 O         2.217791        -0.247150        -0.640103
 C         3.137690        -0.844679         0.326811
 C         1.942622        -1.907136         0.603247
 C         1.764019        -2.555879         2.054850
 C         2.375370        -1.581761         3.123876
 O         2.407048        -0.233913         2.795450
 C         2.411754         0.064248         1.407694
 H        -0.410455        -0.113836         1.462922
 H        -0.576742         0.577059        -0.205424
 H        -0.565484        -1.264656        -0.111418
 H         4.148277        -1.053342         0.146345
 H         1.985262        -2.512306        -0.325774
 H         0.676818        -2.657370         2.186905
 H         2.265803        -3.463222         2.084115
 H         1.731839        -1.766274         4.043420
 H         3.409335        -2.054678         3.352161
 H         2.773879         1.132201         1.473210
