19
Iteration:   202
 C        -0.205278         0.006686         0.269889
 C         1.250410        -0.573704         0.438380
 O         2.181647        -0.346796        -0.672054
 C         3.128407        -0.838246         0.462492
 C         1.977426        -1.941028         0.575069
 C         1.822614        -2.544684         2.054632
 C         2.556620        -1.713430         3.145818
 O         2.315670        -0.308775         2.802954
 C         2.327870         0.013664         1.449973
 H        -0.488955         0.576082         1.189654
 H        -0.110103         0.763082        -0.547111
 H        -1.059177        -0.644142        -0.091322
 H         4.155064        -0.859523         0.023942
 H         1.920618        -2.689293        -0.298085
 H         0.746983        -2.552054         2.262129
 H         2.095519        -3.549424         2.108083
 H         2.213510        -1.938590         4.171338
 H         3.699575        -1.876607         3.085574
 H         2.506844         1.128882         1.432034
