19
Iteration:  2661
 C        -0.199584        -0.242243         0.182628
 C         1.297289        -0.425689         0.455660
 O         2.218179        -0.205284        -0.605838
 C         3.140554        -0.848902         0.450580
 C         1.974009        -1.860184         0.665540
 C         1.717778        -2.570679         1.991098
 C         2.562742        -1.721047         3.006177
 O         2.282057        -0.332406         2.891385
 C         2.371777         0.058053         1.481150
 H        -0.823978        -0.123930         1.081111
 H        -0.491945         0.572775        -0.472314
 H        -0.529020        -1.113059        -0.329056
 H         4.201473        -0.902529         0.135352
 H         1.760226        -2.563307        -0.173540
 H         0.744381        -2.535958         2.325916
 H         1.980284        -3.725551         1.980459
 H         2.439117        -2.076856         4.002550
 H         3.667810        -1.936283         2.734679
 H         2.607804         1.129673         1.543626
