19
Iteration:  3127
 C        -0.234508        -0.137878         0.363127
 C         1.237239        -0.539288         0.461247
 O         2.274438        -0.170319        -0.647213
 C         3.079885        -0.819997         0.403475
 C         2.061651        -1.960486         0.575780
 C         1.899343        -2.608285         2.010638
 C         2.455568        -1.698799         3.102632
 O         2.247467        -0.312918         2.773884
 C         2.312888         0.038884         1.430202
 H        -0.636214        -0.357001         1.306167
 H        -0.247646         0.928883         0.259007
 H        -0.632731        -0.661192        -0.533798
 H         4.148399        -0.936141         0.372217
 H         1.910494        -2.647266        -0.219255
 H         0.860997        -2.693859         2.212896
 H         2.469825        -3.632510         2.027136
 H         1.769183        -1.824289         3.982050
 H         3.682795        -2.079969         3.293504
 H         2.512676         1.136216         1.289132
