19
Iteration:  4144charge 0 multiplicity 1
 C        -0.138921        -0.038545         0.242920
 C         1.218040        -0.596361         0.523564
 O         2.241237        -0.236849        -0.657613
 C         3.036035        -0.990987         0.424797
 C         1.894957        -2.016426         0.682142
 C         1.938321        -2.634898         2.102876
 C         2.648513        -1.540566         3.009457
 O         2.104348        -0.193128         2.817376
 C         2.354795         0.010120         1.396525
 H        -0.797797        -0.651348         0.836075
 H        -0.233680         1.065671         0.445136
 H        -0.256428        -0.262533        -0.841841
 H         4.071902        -1.220580         0.054907
 H         1.712522        -2.822027        -0.051535
 H         0.869779        -2.890236         2.349411
 H         2.654942        -3.400185         2.238442
 H         2.627582        -1.871176         4.099071
 H         3.798324        -1.575462         2.832109
 H         2.525044         0.990197         1.082789
