19
Iteration:   683
 C        -0.139869        -0.015167         0.385233
 C         1.240721        -0.568188         0.317485
 O         2.249739        -0.294620        -0.713408
 C         3.040700        -0.863755         0.382370
 C         2.026254        -1.938422         0.675875
 C         1.854953        -2.640823         2.053628
 C         2.473908        -1.664972         3.078172
 O         2.223735        -0.260437         2.831441
 C         2.378487         0.005176         1.443167
 H        -0.328187         0.217540         1.444317
 H        -0.221216         1.051946         0.122723
 H        -1.036686        -0.670614         0.141096
 H         4.034952        -1.130362         0.176850
 H         1.949269        -2.728130        -0.101710
 H         0.836632        -2.719164         2.063283
 H         2.378402        -3.551568         2.032654
 H         2.262940        -1.847631         4.168264
 H         3.506868        -1.766358         2.979141
 H         2.471801         1.044183         1.232654
