19
Iteration:  2086charge 0 multiplicity 1
 C        -0.244183        -0.109028         0.262351
 C         1.237494        -0.427986         0.463065
 O         2.338522        -0.226316        -0.625698
 C         3.076612        -0.999884         0.444945
 C         1.879848        -1.893232         0.607980
 C         1.892349        -2.647681         1.980630
 C         2.589973        -1.678385         3.122668
 O         2.209274        -0.230294         2.857497
 C         2.367353         0.014774         1.404843
 H        -0.853819        -0.171167         1.255916
 H        -0.485883         0.994660         0.000190
 H        -0.759058        -0.870663        -0.395550
 H         4.111663        -1.372940         0.064321
 H         1.643839        -2.516550        -0.266832
 H         0.748935        -2.926061         2.184575
 H         2.645447        -3.330543         1.712483
 H         2.261499        -2.048798         4.069791
 H         3.699949        -1.863870         3.051350
 H         2.564590         1.101675         1.366398
