19
Iteration:   279charge 0 multiplicity 1
 C        -0.125079        -0.076972         0.303319
 C         1.267506        -0.633449         0.475513
 O         2.204731        -0.318272        -0.657185
 C         3.111075        -0.786712         0.428889
 C         1.996817        -1.949294         0.647079
 C         1.655665        -2.585415         2.030714
 C         2.556409        -1.648105         3.078467
 O         2.375411        -0.281509         2.792788
 C         2.314203         0.043894         1.395315
 H        -0.529985        -0.109862         1.326210
 H        -0.189156         0.970679        -0.068555
 H        -0.839231        -0.717996        -0.360449
 H         4.243788        -0.838637         0.236292
 H         1.879214        -2.592699        -0.314352
 H         0.565380        -2.471992         2.126531
 H         1.910073        -3.614325         2.116582
 H         2.215617        -1.897687         4.130285
 H         3.704520        -1.895487         3.032393
 H         2.375787         1.180792         1.477005
