19
Iteration:  2536charge 0 multiplicity 1
 C        -0.046312        -0.097512         0.364761
 C         1.287584        -0.674125         0.509937
 O         2.243678        -0.214669        -0.611635
 C         3.053907        -0.763200         0.378791
 C         2.054359        -1.970194         0.599516
 C         1.813877        -2.621987         1.948478
 C         2.451216        -1.681708         3.044663
 O         2.249554        -0.291964         2.820084
 C         2.262058         0.047455         1.427264
 H        -0.760500        -0.339857         1.116354
 H         0.000838         0.987116         0.423272
 H        -0.576360        -0.350858        -0.569013
 H         4.087020        -0.778848         0.075626
 H         2.038884        -2.608709        -0.291494
 H         0.671262        -2.560420         2.192081
 H         2.259948        -3.636626         2.229535
 H         2.022163        -1.809506         4.082816
 H         3.544610        -2.007802         3.003305
 H         2.235015         1.131821         1.306593
