19
Iteration:  3791
 C        -0.144534         0.044359         0.196336
 C         1.208018        -0.486840         0.503412
 O         2.166222        -0.366614        -0.627087
 C         3.057823        -0.840576         0.443866
 C         2.005742        -1.968802         0.719532
 C         2.012880        -2.749107         2.103299
 C         2.590924        -1.642939         2.992517
 O         2.086373        -0.322547         2.769903
 C         2.341211         0.114999         1.416796
 H        -0.563613         0.393872         1.206414
 H         0.035917         0.801488        -0.578050
 H        -0.899938        -0.577799        -0.304880
 H         4.114367        -1.008189         0.334149
 H         1.746459        -2.649343        -0.108978
 H         1.069335        -3.108398         2.270191
 H         2.733454        -3.456579         1.938774
 H         2.608024        -1.780746         4.132791
 H         3.730186        -1.738053         3.061699
 H         2.440272         1.278530         1.439180
