19
Iteration:  1576charge 0 multiplicity 1
 C        -0.232955        -0.201519         0.184524
 C         1.279757        -0.405327         0.480893
 O         2.298007        -0.187900        -0.692435
 C         3.061023        -0.917778         0.316805
 C         1.780403        -1.914881         0.750224
 C         1.887958        -2.628917         2.133563
 C         2.537169        -1.669311         3.037784
 O         2.261463        -0.329819         2.812901
 C         2.447720         0.095121         1.483247
 H        -0.684560        -0.789487         1.066209
 H        -0.391551         0.901939         0.264711
 H        -0.503182        -0.852870        -0.672633
 H         4.144732        -1.165851         0.085365
 H         1.449720        -2.538278        -0.160792
 H         0.919138        -2.923270         2.496180
 H         2.517567        -3.473794         2.005591
 H         2.152736        -1.906242         4.067252
 H         3.537230        -1.624003         3.143323
 H         2.707262         1.160208         1.316417
