19
Iteration:  2203charge 0 multiplicity 1
 C        -0.141700        -0.136860         0.324482
 C         1.284731        -0.497940         0.436684
 O         2.239233        -0.249522        -0.685188
 C         3.073662        -0.895428         0.377373
 C         1.992933        -1.903013         0.646972
 C         1.771788        -2.574866         1.966000
 C         2.581367        -1.706362         3.139004
 O         2.219119        -0.282213         2.801735
 C         2.305033         0.038231         1.499544
 H        -0.651567        -0.662603         1.093940
 H        -0.137776         0.924737         0.465697
 H        -0.458910        -0.435427        -0.667747
 H         4.189849        -1.044541         0.168151
 H         1.799474        -2.516278        -0.233308
 H         0.710146        -2.496223         2.152200
 H         2.286760        -3.626339         2.127416
 H         2.167194        -1.979081         4.149789
 H         3.726650        -1.885502         3.070578
 H         2.550456         1.132769         1.311141
