19
Iteration:  2943
 C        -0.114406        -0.156611         0.359050
 C         1.282067        -0.558543         0.457012
 O         2.269813        -0.187285        -0.620587
 C         3.074403        -0.838689         0.503149
 C         1.990953        -1.988308         0.637143
 C         1.851698        -2.617057         1.977804
 C         2.470623        -1.695859         2.960520
 O         2.250969        -0.260951         2.800221
 C         2.286898         0.058043         1.424739
 H        -0.795812        -0.677125         1.143094
 H        -0.234779         0.937470         0.532105
 H        -0.647576        -0.565878        -0.603086
 H         4.128970        -0.965620         0.260159
 H         1.791342        -2.480503        -0.358787
 H         0.785473        -2.871134         2.163090
 H         2.517899        -3.446736         1.963871
 H         2.006828        -1.882903         3.952020
 H         3.658865        -1.720116         2.974473
 H         2.284886         1.197922         1.451293
