19
Iteration:  2347
 C        -0.220553        -0.167030         0.293842
 C         1.283226        -0.542312         0.455946
 O         2.233767        -0.235851        -0.659661
 C         3.108560        -0.769120         0.433587
 C         1.962182        -1.880446         0.668323
 C         1.780060        -2.569738         2.031204
 C         2.504756        -1.775161         3.103206
 O         2.270226        -0.350861         2.801914
 C         2.420338         0.077131         1.382276
 H        -0.730762        -0.485764         1.191839
 H        -0.100420         0.890353         0.194754
 H        -0.650631        -0.634397        -0.552781
 H         4.244222        -0.937034         0.300047
 H         1.847489        -2.477198        -0.219261
 H         0.724693        -2.448664         2.096933
 H         2.133282        -3.597925         1.994045
 H         2.079408        -1.774815         4.097964
 H         3.617044        -1.987291         3.068508
 H         2.641945         1.146345         1.316041
