19
Iteration:   350
 C        -0.100679        -0.175884         0.262057
 C         1.337966        -0.436340         0.570658
 O         2.303456        -0.232924        -0.682944
 C         2.996678        -1.007899         0.312651
 C         1.727819        -1.926311         0.652057
 C         1.849681        -2.668036         2.082326
 C         2.516582        -1.596305         3.052585
 O         2.266849        -0.195897         2.822227
 C         2.394541         0.053007         1.455046
 H        -0.506138        -0.872376         1.059676
 H        -0.424146         0.842715         0.526219
 H        -0.212655        -0.392708        -0.760487
 H         3.978252        -1.271759         0.020586
 H         1.394710        -2.555256        -0.112699
 H         0.844640        -2.975632         2.481870
 H         2.395949        -3.543991         1.743810
 H         2.235307        -1.677992         4.101004
 H         3.751814        -1.858730         2.929514
 H         2.677994         1.055158         1.319381
