19
Iteration:  2142
 C        -0.190871        -0.211159         0.252817
 C         1.241274        -0.555068         0.446182
 O         2.254225        -0.189030        -0.653019
 C         3.070269        -0.808258         0.396475
 C         2.006201        -1.941612         0.584017
 C         1.734858        -2.450705         2.028511
 C         2.536635        -1.719039         3.077363
 O         2.365555        -0.343398         2.864693
 C         2.382170        -0.015897         1.481831
 H        -0.782237        -0.364208         1.218752
 H        -0.413213         0.839499        -0.147679
 H        -0.807276        -0.709045        -0.532194
 H         4.146232        -0.748731         0.102932
 H         1.766089        -2.699954        -0.185397
 H         0.576769        -2.395774         2.276462
 H         1.930053        -3.487494         2.213857
 H         2.036377        -1.859211         4.019748
 H         3.621338        -1.888308         3.027420
 H         2.585753         1.039604         1.598001
