19
Iteration:   447
 C        -0.238256        -0.262982         0.310586
 C         1.258851        -0.461969         0.534736
 O         2.374762        -0.228514        -0.681551
 C         3.052747        -1.051280         0.397663
 C         1.777572        -1.884996         0.649804
 C         1.784715        -2.561008         1.943400
 C         2.533923        -1.641859         3.016328
 O         2.323558        -0.221737         2.857203
 C         2.439485         0.125735         1.446604
 H        -0.668521         0.155156         1.286833
 H        -0.362161         0.572012        -0.436366
 H        -0.633059        -1.262407         0.091252
 H         4.082543        -1.317255         0.447386
 H         1.525403        -2.547413        -0.173844
 H         0.774232        -2.728399         2.358575
 H         2.355191        -3.401643         1.923204
 H         2.118855        -1.957850         3.977833
 H         3.590123        -1.803615         3.026675
 H         2.674165         1.149739         1.281736
