19
Iteration:  3260charge 0 multiplicity 1
 C        -0.200781        -0.106145         0.325443
 C         1.251134        -0.508579         0.458619
 O         2.352812        -0.244579        -0.676562
 C         3.084814        -0.894907         0.399579
 C         1.879784        -1.923596         0.610432
 C         2.012879        -2.615598         1.952106
 C         2.556423        -1.701221         3.090231
 O         2.125956        -0.273431         2.838747
 C         2.290763         0.075368         1.484371
 H        -0.560022        -0.253897         1.360663
 H        -0.349025         0.974262         0.244115
 H        -0.850787        -0.423178        -0.474811
 H         4.062634        -1.110509        -0.105367
 H         1.573479        -2.630800        -0.160922
 H         1.239046        -3.201511         2.339736
 H         2.735673        -3.585412         1.936857
 H         2.035123        -1.904549         4.019231
 H         3.590365        -1.837085         3.153912
 H         2.295907         1.147736         1.425534
