19
Iteration:  4907charge 0 multiplicity 1
 C        -0.159334        -0.212132         0.231341
 C         1.287308        -0.475757         0.507273
 O         2.247953        -0.296552        -0.598750
 C         3.060938        -0.887216         0.413448
 C         1.906887        -1.873272         0.701919
 C         1.868043        -2.562651         1.959685
 C         2.518344        -1.687291         3.006977
 O         2.219776        -0.317227         2.882398
 C         2.389084         0.140800         1.403012
 H        -0.774106        -0.281508         1.128695
 H        -0.290096         0.828383         0.000242
 H        -0.549603        -0.830348        -0.579732
 H         4.085175        -1.005623         0.098261
 H         1.748254        -2.525803        -0.196846
 H         0.840884        -2.891260         2.355648
 H         2.330281        -3.561791         1.845760
 H         2.389537        -1.914701         4.117520
 H         3.581816        -1.746360         2.781159
 H         2.630115         1.228175         1.417549
