19
Iteration:  2181charge 0 multiplicity 1
 C        -0.234557        -0.257693         0.304657
 C         1.315363        -0.425703         0.533708
 O         2.311533        -0.241305        -0.598852
 C         3.088224        -0.863778         0.404685
 C         1.827835        -1.924740         0.649702
 C         1.743925        -2.591408         1.993127
 C         2.485647        -1.618684         2.959034
 O         2.282504        -0.295510         2.825470
 C         2.475208         0.081712         1.457820
 H        -0.693727        -0.787758         1.102829
 H        -0.525893         0.768544         0.228751
 H        -0.464463        -0.760688        -0.641766
 H         4.210579        -1.046803         0.376526
 H         1.704440        -2.496346        -0.266106
 H         0.717466        -2.770999         2.231599
 H         2.567131        -3.504164         2.000017
 H         2.118738        -1.960090         3.960758
 H         3.553362        -1.984947         2.729406
 H         2.820942         1.130448         1.209243
