19
Iteration:  2220
 C        -0.074240        -0.015788         0.303489
 C         1.244961        -0.644700         0.368357
 O         2.234426        -0.201812        -0.676185
 C         3.076408        -0.802855         0.423143
 C         1.977761        -2.003827         0.584461
 C         1.865076        -2.554015         2.088506
 C         2.494771        -1.692231         3.067697
 O         2.257839        -0.336197         2.849015
 C         2.279991         0.003666         1.406679
 H        -0.688553        -0.426728         1.179398
 H        -0.031448         1.084606         0.563735
 H        -0.652454        -0.335130        -0.609991
 H         4.096505        -0.755402         0.182000
 H         1.886537        -2.817968        -0.184813
 H         0.797812        -2.699139         2.504843
 H         2.176714        -3.522255         2.140871
 H         2.300179        -1.881938         4.115983
 H         3.541531        -1.796574         3.168109
 H         2.253925         1.060953         1.444624
