19
Iteration:  2821
 C        -0.160063        -0.225721         0.191912
 C         1.254217        -0.544044         0.496047
 O         2.187350        -0.178759        -0.603462
 C         3.068507        -0.755905         0.430748
 C         2.057940        -1.935339         0.659556
 C         1.730396        -2.542079         2.002223
 C         2.581334        -1.767421         3.024154
 O         2.312115        -0.372878         2.831846
 C         2.312799         0.070442         1.500149
 H        -0.714343        -0.227889         1.110397
 H        -0.170446         0.825968        -0.226262
 H        -0.359711        -0.861653        -0.700878
 H         4.088242        -0.794345         0.186233
 H         1.940606        -2.571478        -0.214243
 H         0.678891        -2.372105         2.275285
 H         1.907618        -3.527186         2.099544
 H         2.410992        -1.742356         4.068129
 H         3.601508        -1.897616         2.880237
 H         2.416638         1.180032         1.400264
