19
Iteration:  1534charge 0 multiplicity 1
 C        -0.152110         0.018399         0.290116
 C         1.245558        -0.609379         0.446396
 O         2.278091        -0.336381        -0.673488
 C         3.026544        -0.853968         0.387753
 C         1.976204        -1.987713         0.609329
 C         1.878875        -2.561583         2.029936
 C         2.604697        -1.622589         3.037736
 O         2.191149        -0.273875         2.879993
 C         2.258025         0.026644         1.465964
 H        -0.752189        -0.218692         1.200339
 H         0.131657         1.030830        -0.030793
 H        -0.729954        -0.467547        -0.497103
 H         4.044006        -0.967915         0.092262
 H         1.959999        -2.751764        -0.149754
 H         0.916865        -2.815709         2.565477
 H         2.415156        -3.546720         2.181994
 H         2.312752        -1.835269         4.152329
 H         3.818151        -1.919101         2.796246
 H         2.250736         1.124442         1.362565
