19
Iteration:   837
 C        -0.200684        -0.111260         0.341442
 C         1.298553        -0.486172         0.448081
 O         2.297203        -0.198625        -0.695423
 C         3.080814        -0.954622         0.377637
 C         1.865527        -2.017419         0.691098
 C         1.861206        -2.618121         2.070885
 C         2.502170        -1.642367         3.062522
 O         2.214197        -0.249523         2.820186
 C         2.431970         0.057752         1.407192
 H        -0.740250        -0.268906         1.316714
 H        -0.348445         0.976011         0.001316
 H        -0.793930        -0.708903        -0.474639
 H         4.100861        -0.995980         0.024258
 H         1.459856        -2.629656        -0.185785
 H         0.868131        -3.194899         2.299004
 H         2.604946        -3.405742         2.063808
 H         2.211112        -1.927191         4.133055
 H         3.700575        -1.751883         2.931017
 H         2.614093         1.135467         1.293844
