19
Iteration:  4758charge 0 multiplicity 1
 C        -0.148789        -0.268069         0.158695
 C         1.211445        -0.533345         0.537679
 O         2.219956        -0.233691        -0.596035
 C         3.028400        -0.781065         0.457571
 C         1.940001        -1.882718         0.660720
 C         1.732742        -2.551840         2.046363
 C         2.624694        -1.758393         2.975227
 O         2.388946        -0.301818         2.870070
 C         2.324327         0.099812         1.425945
 H        -0.973250        -0.392492         0.982331
 H        -0.128714         0.784100        -0.223093
 H        -0.470122        -0.845907        -0.773757
 H         4.160829        -0.784103         0.181451
 H         1.903810        -2.700210        -0.143399
 H         0.754353        -2.272660         2.366462
 H         1.985502        -3.685040         2.110507
 H         2.326284        -1.774551         4.018165
 H         3.636360        -2.051559         2.856123
 H         2.444423         1.186455         1.286761
