19
Iteration:  4931charge 0 multiplicity 1
 C        -0.224224        -0.248542         0.180372
 C         1.296202        -0.536239         0.422392
 O         2.259017        -0.116223        -0.659041
 C         3.053310        -0.837640         0.468778
 C         1.963803        -1.953197         0.609067
 C         1.786426        -2.509793         2.058968
 C         2.590904        -1.728932         3.038214
 O         2.346379        -0.300197         2.900145
 C         2.312162        -0.000028         1.487812
 H        -0.815212         0.103170         1.048804
 H        -0.426758         0.562178        -0.464842
 H        -0.667961        -1.144672        -0.251993
 H         4.100292        -0.931663         0.125797
 H         1.805029        -2.743083        -0.203961
 H         0.697514        -2.414915         2.525489
 H         1.787596        -3.604383         2.047699
 H         2.355829        -1.773446         4.086034
 H         3.697620        -1.903968         2.855825
 H         2.377533         1.077840         1.374905
