19
Iteration:  1174
 C        -0.217820        -0.101414         0.176253
 C         1.204130        -0.396577         0.429537
 O         2.239178        -0.320713        -0.627611
 C         3.024526        -0.954302         0.455523
 C         1.907606        -1.938815         0.646306
 C         1.909040        -2.626268         2.063460
 C         2.564836        -1.661908         3.057976
 O         2.266691        -0.249807         2.843953
 C         2.386361         0.091982         1.456923
 H        -0.768641        -0.811745         0.833526
 H        -0.597449         0.918719         0.545422
 H        -0.471482        -0.269332        -0.907731
 H         4.043813        -1.242690         0.207277
 H         1.767543        -2.545956        -0.254633
 H         0.889265        -2.929099         2.269900
 H         2.519629        -3.555240         2.059786
 H         2.475435        -1.825626         4.218007
 H         3.749573        -1.868085         2.865352
 H         2.882486         1.096473         1.457090
