19
Iteration:  2805charge 0 multiplicity 1
 C        -0.237197        -0.218284         0.223997
 C         1.309849        -0.556206         0.445632
 O         2.287262        -0.176613        -0.606133
 C         3.091636        -0.810118         0.513611
 C         1.935624        -1.906735         0.589637
 C         1.735259        -2.593869         2.011752
 C         2.560704        -1.711327         3.012087
 O         2.338714        -0.253836         2.856967
 C         2.307058         0.061153         1.477834
 H        -0.800455        -0.697990         1.099253
 H        -0.317825         0.857454         0.145702
 H        -0.659642        -0.844051        -0.551238
 H         4.235773        -0.919708         0.345808
 H         1.815857        -2.592079        -0.309673
 H         0.657268        -2.633847         2.226361
 H         2.204630        -3.711702         1.980509
 H         2.299725        -2.254138         3.962994
 H         3.653216        -1.832010         2.602889
 H         2.397719         1.136667         1.380081
