19
Iteration:  1485charge 0 multiplicity 1
 C        -0.167862        -0.222353         0.285888
 C         1.291964        -0.453888         0.527955
 O         2.291859        -0.296192        -0.666482
 C         3.041230        -0.885471         0.351667
 C         1.914856        -1.894606         0.645069
 C         1.806500        -2.580032         1.986525
 C         2.488045        -1.633560         3.068850
 O         2.293958        -0.227541         2.859382
 C         2.379421         0.033728         1.451610
 H        -0.683780        -0.254977         1.263342
 H        -0.314837         0.695608        -0.323316
 H        -0.718018        -1.114652        -0.156466
 H         4.136173        -0.987566         0.108281
 H         1.620169        -2.545374        -0.240532
 H         0.764131        -2.761845         2.179558
 H         2.258281        -3.540207         2.071215
 H         2.281783        -1.858526         4.091062
 H         3.544518        -1.931766         2.821280
 H         2.624948         1.106499         1.475302
