19
Iteration:  2750
 C        -0.129664        -0.133357         0.332706
 C         1.346906        -0.523917         0.490995
 O         2.191483        -0.221080        -0.652611
 C         3.047883        -0.826677         0.329587
 C         2.046819        -1.947466         0.673980
 C         1.838609        -2.617140         2.011233
 C         2.435238        -1.665608         3.084191
 O         2.164926        -0.346334         2.789512
 C         2.375521         0.078393         1.445514
 H        -0.600956        -0.622329         1.184641
 H        -0.188177         0.907768         0.584070
 H        -0.229387        -0.217287        -0.708571
 H         4.129619        -0.947267        -0.044917
 H         2.022561        -2.484305        -0.302594
 H         0.840104        -2.946295         2.192315
 H         2.484462        -3.607836         2.050466
 H         2.066978        -2.029683         4.069071
 H         3.502750        -1.690071         3.160388
 H         2.658370         1.132964         1.390286
