19
Iteration:   675
 C        -0.161358        -0.024967         0.398476
 C         1.278348        -0.554065         0.343074
 O         2.242632        -0.284425        -0.679558
 C         3.053074        -0.955126         0.367599
 C         1.948154        -1.966821         0.625715
 C         1.845488        -2.593497         2.032403
 C         2.472935        -1.653051         3.084426
 O         2.192593        -0.268400         2.826515
 C         2.415663         0.104276         1.445317
 H        -0.269277         0.070440         1.487969
 H        -0.422206         0.940874        -0.051177
 H        -0.864795        -0.780500         0.046539
 H         4.111586        -1.116702         0.228877
 H         2.074838        -2.723250        -0.166148
 H         0.808592        -2.952955         2.334023
 H         2.576902        -3.519347         1.928906
 H         2.237065        -1.857205         4.175649
 H         3.664596        -1.824097         2.914110
 H         2.816925         1.115941         1.365173
