19
Iteration:   717
 C        -0.109370        -0.101378         0.299875
 C         1.267511        -0.582922         0.507907
 O         2.161354        -0.283792        -0.615631
 C         3.035996        -0.837775         0.420759
 C         1.982108        -1.933814         0.676862
 C         1.801671        -2.570298         2.005465
 C         2.508712        -1.666559         3.033056
 O         2.303491        -0.268073         2.775773
 C         2.415611         0.032412         1.431570
 H        -0.653688        -0.251883         1.234326
 H        -0.001465         0.928979        -0.062323
 H        -0.614895        -0.594139        -0.568697
 H         4.006320        -1.040816         0.073766
 H         1.859357        -2.626125        -0.179739
 H         0.781108        -2.710436         2.151925
 H         2.157959        -3.584254         2.091709
 H         2.143306        -1.800542         4.083204
 H         3.520303        -1.876257         2.985701
 H         2.470705         1.097003         1.309522
