19
Iteration:   133
 C        -0.189184        -0.252733         0.377300
 C         1.294643        -0.451420         0.486850
 O         2.416493        -0.272102        -0.723376
 C         3.025789        -1.029489         0.347666
 C         1.747360        -1.821979         0.627107
 C         1.747730        -2.553873         2.011185
 C         2.531582        -1.644575         3.088634
 O         2.314994        -0.194339         2.843230
 C         2.394525         0.062995         1.464675
 H        -0.802082        -0.904147         1.078336
 H        -0.646806         0.741165         0.370083
 H        -0.341210        -0.439029        -0.637449
 H         3.998530        -1.455847         0.125688
 H         1.250870        -2.369219        -0.185032
 H         0.894073        -2.960333         2.395904
 H         2.473012        -3.388621         1.841853
 H         2.218992        -1.779473         4.111012
 H         3.685429        -1.894143         2.983774
 H         2.873868         1.001487         1.341993
