19
Iteration:  3936
 C        -0.174696        -0.204224         0.211466
 C         1.253479        -0.485481         0.538916
 O         2.204849        -0.355073        -0.634576
 C         2.983396        -0.872815         0.436077
 C         1.975607        -1.908812         0.675007
 C         1.888713        -2.586373         2.007320
 C         2.551697        -1.636753         3.054377
 O         2.325827        -0.234130         2.819321
 C         2.323529         0.086210         1.438021
 H        -1.034607        -0.569191         0.839485
 H        -0.282795         0.848550        -0.098952
 H        -0.317288        -0.475340        -0.856444
 H         4.038788        -1.158439         0.202041
 H         1.700569        -2.572473        -0.168471
 H         0.876643        -2.670486         2.404645
 H         2.277434        -3.546569         2.131668
 H         2.286883        -1.841492         4.172802
 H         3.745266        -1.632204         2.948874
 H         2.530862         1.131212         1.323746
