19
Iteration:  1008charge 0 multiplicity 1
 C        -0.089431        -0.033669         0.316041
 C         1.267264        -0.556274         0.353760
 O         2.141500        -0.234258        -0.647559
 C         3.065299        -0.896790         0.550700
 C         1.996036        -2.036935         0.647113
 C         1.828878        -2.586994         2.081291
 C         2.553085        -1.682315         3.066614
 O         2.333878        -0.291423         2.719840
 C         2.245760         0.077323         1.358437
 H        -0.697557        -0.470943         1.172356
 H        -0.077514         1.028261         0.611421
 H        -0.457216        -0.254432        -0.715625
 H         4.208188        -0.931279         0.563827
 H         1.907966        -2.769085        -0.131575
 H         0.803806        -2.623417         2.309649
 H         2.344101        -3.582376         2.284046
 H         2.202756        -1.776386         4.114936
 H         3.584251        -1.976419         3.075381
 H         2.104238         1.141174         1.247963
