19
Iteration:  3162
 C        -0.159099        -0.340028         0.243586
 C         1.307077        -0.478551         0.582164
 O         2.247655        -0.155804        -0.655443
 C         3.082376        -0.835843         0.367068
 C         1.953696        -1.909551         0.591338
 C         1.709567        -2.533752         1.983485
 C         2.485640        -1.730695         2.994450
 O         2.329356        -0.275400         2.877365
 C         2.372671         0.114706         1.530530
 H        -0.842730        -0.772021         0.990570
 H        -0.561562         0.613063        -0.064701
 H        -0.359565        -0.999172        -0.591806
 H         4.178756        -0.962776         0.369829
 H         1.713163        -2.540427        -0.264763
 H         0.697502        -2.683609         2.346900
 H         2.115258        -3.620503         2.029815
 H         2.327195        -1.967261         4.003235
 H         3.767658        -1.940398         2.843586
 H         2.643994         1.135431         1.463606
