19
Iteration:  1205
 C        -0.067876        -0.025488         0.301972
 C         1.254273        -0.639400         0.473546
 O         2.165871        -0.277062        -0.656116
 C         3.048251        -0.797530         0.398270
 C         2.023343        -1.989206         0.598354
 C         1.855339        -2.543149         2.117944
 C         2.557816        -1.641119         3.108533
 O         2.259185        -0.311651         2.762647
 C         2.228597        -0.003638         1.388858
 H        -0.815606        -0.621991         0.812566
 H         0.197826         0.973275         0.631539
 H        -0.281445         0.113125        -0.763952
 H         4.148459        -0.940024         0.250855
 H         1.952332        -2.795153        -0.120204
 H         0.809948        -2.706157         2.191236
 H         2.099456        -3.649565         2.302740
 H         2.316666        -1.692060         4.188055
 H         3.537335        -1.880686         2.979826
 H         2.365351         1.077759         1.354940
