19
Iteration:  4945
 C        -0.166125        -0.294164         0.165604
 C         1.212247        -0.606690         0.364046
 O         2.259184        -0.110246        -0.526484
 C         3.057637        -0.833349         0.409740
 C         1.960008        -1.894514         0.652312
 C         1.699265        -2.436151         2.055403
 C         2.618775        -1.741661         3.084727
 O         2.419739        -0.348842         2.816700
 C         2.224717         0.071563         1.447052
 H        -0.441015         0.102391         1.141472
 H        -0.167716         0.418401        -0.703446
 H        -0.831493        -1.137178        -0.025763
 H         4.169875        -0.924174         0.386384
 H         1.932020        -2.657491        -0.115871
 H         0.636130        -2.245378         2.151476
 H         2.013199        -3.462859         2.178530
 H         2.333424        -2.176714         3.970136
 H         3.757773        -2.096299         2.991283
 H         2.392430         1.137476         1.423325
