19
Iteration:  3552
 C        -0.230703        -0.264312         0.204883
 C         1.275722        -0.445318         0.373713
 O         2.290201        -0.167136        -0.689801
 C         3.035336        -0.838661         0.411909
 C         1.969558        -1.906128         0.683880
 C         1.801265        -2.585915         2.098014
 C         2.516138        -1.729939         3.104411
 O         2.333234        -0.352084         2.808274
 C         2.352163         0.114124         1.478824
 H        -0.685867        -0.011180         1.153077
 H        -0.311411         0.582317        -0.418196
 H        -0.626717        -1.218877        -0.091921
 H         4.083953        -0.862362         0.192089
 H         1.710120        -2.619963        -0.078002
 H         0.833268        -2.514716         2.382932
 H         2.211107        -3.580535         2.044751
 H         2.102502        -2.010905         4.133035
 H         3.580223        -2.024535         3.114022
 H         2.432239         1.234247         1.585708
