19
Iteration:   448
 C        -0.226816        -0.264761         0.312090
 C         1.264182        -0.470013         0.522928
 O         2.374737        -0.224084        -0.693253
 C         3.043578        -1.041046         0.405451
 C         1.772855        -1.880665         0.651281
 C         1.782513        -2.565155         1.950937
 C         2.536218        -1.636382         3.016741
 O         2.323341        -0.219799         2.853152
 C         2.436892         0.110018         1.457286
 H        -0.657634         0.152013         1.300884
 H        -0.335431         0.581025        -0.407353
 H        -0.631181        -1.263785         0.132729
 H         4.108013        -1.349434         0.438652
 H         1.483675        -2.529818        -0.165371
 H         0.779667        -2.733400         2.343288
 H         2.403568        -3.408220         1.891570
 H         2.118999        -1.940201         3.952404
 H         3.531359        -1.805430         3.032896
 H         2.654987         1.169439         1.304006
