19
Iteration:  1391charge 0 multiplicity 1
 C        -0.194076        -0.090307         0.311812
 C         1.266688        -0.533704         0.489450
 O         2.270119        -0.275203        -0.646019
 C         3.042364        -0.916824         0.447020
 C         1.935423        -1.956284         0.618809
 C         1.875090        -2.576663         2.084973
 C         2.587463        -1.636797         3.072791
 O         2.258159        -0.263980         2.768984
 C         2.336527         0.039786         1.403759
 H        -1.077271        -0.578831         0.768848
 H        -0.235279         1.013950         0.354218
 H        -0.553049        -0.237766        -0.712124
 H         4.111364        -1.104959         0.160910
 H         1.868050        -2.728624        -0.162226
 H         0.760752        -2.724724         2.211432
 H         2.239278        -3.678907         2.048284
 H         2.161238        -1.919915         4.061676
 H         3.605132        -1.719947         3.129245
 H         2.410585         1.144576         1.216289
