19
Iteration:  2005
 C        -0.171431        -0.188155         0.324851
 C         1.274519        -0.587513         0.418579
 O         2.253730        -0.175369        -0.659061
 C         3.107233        -0.872163         0.445785
 C         1.932178        -1.909511         0.640397
 C         1.802599        -2.530084         2.033662
 C         2.493130        -1.720264         3.074231
 O         2.373828        -0.254042         2.807961
 C         2.289053         0.029531         1.414073
 H        -0.641485        -0.516707         1.223883
 H        -0.096031         0.880234         0.234089
 H        -0.622649        -0.483394        -0.618459
 H         4.165753        -1.083546         0.307238
 H         1.791838        -2.654549        -0.156479
 H         0.768700        -2.680673         2.176554
 H         1.985570        -3.609819         1.927993
 H         1.916773        -1.973468         4.011507
 H         3.576538        -2.006905         3.087713
 H         2.325996         1.130617         1.388798
