19
Iteration:  1475
 C        -0.205590        -0.318040         0.300043
 C         1.295466        -0.455132         0.487412
 O         2.305522        -0.231031        -0.724945
 C         3.091993        -0.972351         0.331701
 C         1.846741        -1.873250         0.649206
 C         1.775603        -2.590518         1.986607
 C         2.435796        -1.657372         3.022962
 O         2.320500        -0.196814         2.948631
 C         2.421634         0.093892         1.513112
 H        -0.547557        -0.166526         1.350561
 H        -0.454444         0.663250        -0.207685
 H        -0.478604        -1.220525        -0.348860
 H         4.223919        -1.113106         0.155819
 H         1.406593        -2.491872        -0.235199
 H         0.771957        -2.826741         2.283175
 H         2.403259        -3.421422         1.994967
 H         2.282497        -1.856516         4.064610
 H         3.665970        -1.744814         2.902739
 H         2.703936         1.090999         1.156956
