19
Iteration:   794
 C        -0.130899        -0.160467         0.214703
 C         1.265043        -0.628279         0.463941
 O         2.190401        -0.316366        -0.690203
 C         3.069601        -0.769094         0.351220
 C         1.979119        -1.925402         0.644035
 C         1.710550        -2.531487         2.098999
 C         2.540429        -1.694703         3.004646
 O         2.395238        -0.266334         2.907542
 C         2.291875         0.052131         1.481128
 H        -0.851954        -0.445058         1.038661
 H         0.051285         0.920902         0.565627
 H        -0.470753        -0.206368        -0.894995
 H         4.138110        -0.797340         0.328225
 H         1.758237        -2.784101        -0.059971
 H         0.621043        -2.436945         2.262343
 H         2.040802        -3.571514         2.155370
 H         2.416190        -1.891999         4.118176
 H         3.626972        -1.917109         2.720170
 H         2.525112         1.124372         1.369982
