19
Iteration:  2260charge 0 multiplicity 1
 C        -0.105710        -0.111038         0.268745
 C         1.327202        -0.459692         0.450133
 O         2.231279        -0.274212        -0.656025
 C         3.053980        -0.863757         0.466363
 C         1.815060        -1.918166         0.668366
 C         1.897644        -2.576097         1.992409
 C         2.560316        -1.703080         3.001824
 O         2.200511        -0.294584         2.837776
 C         2.373596         0.057922         1.509149
 H        -0.793644        -0.242019         1.142491
 H        -0.444585         0.833779        -0.211670
 H        -0.501075        -0.753083        -0.525033
 H         4.179837        -1.108952         0.260157
 H         1.616366        -2.489615        -0.211068
 H         0.926895        -2.986726         2.250498
 H         2.581538        -3.647573         2.081930
 H         2.039805        -2.060521         3.899407
 H         3.709766        -1.893825         2.925578
 H         2.642265         1.128960         1.384621
