19
Iteration:  2702charge 0 multiplicity 1
 C        -0.221185        -0.114111         0.277426
 C         1.287335        -0.540547         0.420911
 O         2.288024        -0.170152        -0.610822
 C         3.089056        -0.894377         0.405689
 C         1.907381        -1.919716         0.572426
 C         1.908280        -2.613225         2.040594
 C         2.459157        -1.710989         3.087673
 O         2.288082        -0.282858         2.810607
 C         2.308199         0.048428         1.493159
 H        -0.474538        -0.306726         1.258542
 H        -0.473431         0.921960         0.052536
 H        -0.514601        -0.780622        -0.514118
 H         4.105627        -1.071471         0.342954
 H         1.843364        -2.670299        -0.228557
 H         0.798834        -2.933511         1.993914
 H         2.447414        -3.562978         1.961246
 H         2.100804        -1.857753         4.076371
 H         3.574082        -1.913851         3.151962
 H         2.449797         1.150979         1.320200
