19
Iteration:    62
 C        -0.132759        -0.044758         0.298464
 C         1.269942        -0.543291         0.349186
 O         2.222896        -0.313141        -0.725663
 C         3.039788        -0.896805         0.446496
 C         1.947963        -1.979980         0.705010
 C         1.729691        -2.594866         2.124251
 C         2.574668        -1.664043         3.115020
 O         2.376675        -0.276975         2.779508
 C         2.285302         0.071534         1.405836
 H        -0.955184        -0.698984         0.607004
 H        -0.160306         0.895868         0.856281
 H        -0.290394         0.323545        -0.784776
 H         4.130372        -1.037927         0.230064
 H         1.920562        -2.742624        -0.118008
 H         0.615918        -2.563452         2.488338
 H         2.082744        -3.671669         2.093976
 H         2.280421        -1.672075         4.224431
 H         3.730292        -1.980302         3.013944
 H         2.412005         1.199509         1.375981
