19
Iteration:  3121
 C        -0.251920        -0.114968         0.402709
 C         1.254469        -0.544143         0.455567
 O         2.310772        -0.175853        -0.653698
 C         3.080986        -0.819987         0.456585
 C         2.042963        -1.949378         0.586965
 C         1.935295        -2.658390         2.025258
 C         2.466591        -1.668295         3.066098
 O         2.252322        -0.322027         2.783331
 C         2.277012         0.008760         1.368925
 H        -0.792373        -0.229389         1.419752
 H        -0.297579         0.995050         0.197544
 H        -0.620703        -0.505628        -0.539735
 H         4.177653        -0.851649         0.202738
 H         1.971130        -2.616336        -0.332394
 H         0.816803        -2.932237         2.057498
 H         2.388630        -3.597276         2.178488
 H         1.828807        -1.758047         3.936920
 H         3.408302        -1.866938         3.308283
 H         2.382798         1.072619         1.334104
