19
Iteration:  4299charge 0 multiplicity 1
 C        -0.159298        -0.162375         0.294482
 C         1.293495        -0.604623         0.403734
 O         2.177647        -0.236538        -0.685374
 C         3.041940        -0.942134         0.377919
 C         2.021008        -1.988367         0.630963
 C         1.839430        -2.565682         2.059092
 C         2.462879        -1.586394         3.139722
 O         2.273702        -0.185317         2.802617
 C         2.380499         0.039344         1.490803
 H        -0.634360        -0.300070         1.259901
 H        -0.186174         0.927443         0.156763
 H        -0.713271        -0.752992        -0.419530
 H         4.186756        -0.989450         0.123565
 H         1.823053        -2.669251        -0.236047
 H         0.794899        -2.892467         2.247767
 H         2.281552        -3.510621         2.081392
 H         2.290297        -1.902888         4.169501
 H         3.601703        -1.676506         3.026365
 H         2.704343         1.030824         1.137824
