19
Iteration:  2863charge 0 multiplicity 1
 C        -0.238223        -0.189846         0.207774
 C         1.229846        -0.477150         0.450535
 O         2.295500        -0.156215        -0.596943
 C         3.032179        -0.884152         0.495233
 C         1.938895        -1.949607         0.604050
 C         1.903322        -2.636837         1.973075
 C         2.512533        -1.700429         3.026711
 O         2.318058        -0.263743         2.843368
 C         2.328087         0.058849         1.520173
 H        -0.767191         0.018947         1.107272
 H        -0.564010         0.689468        -0.376474
 H        -0.751809        -0.888948        -0.431234
 H         4.093529        -1.034843         0.359608
 H         1.781644        -2.552961        -0.234223
 H         0.878672        -2.959138         2.079079
 H         2.474282        -3.552611         1.970919
 H         2.281483        -2.039800         4.036844
 H         3.607035        -1.923590         2.904256
 H         2.605576         1.107268         1.500861
