19
Iteration:  4695
 C        -0.076493        -0.017283         0.380101
 C         1.261591        -0.563518         0.442807
 O         2.215475        -0.286913        -0.606409
 C         3.022307        -0.913161         0.375390
 C         1.974293        -1.933751         0.666907
 C         1.978423        -2.568391         2.002606
 C         2.489997        -1.598941         3.047982
 O         2.100938        -0.303550         2.807546
 C         2.327117        -0.027271         1.387336
 H        -0.452832         0.315459         1.355073
 H         0.023874         0.792342        -0.321567
 H        -0.716363        -0.793757        -0.000500
 H         4.115886        -0.969968         0.034450
 H         1.879598        -2.479962        -0.262068
 H         1.100116        -3.184159         2.125773
 H         2.786450        -3.351209         2.104509
 H         2.237448        -1.975364         4.064444
 H         3.669695        -1.718553         3.012793
 H         2.487585         1.066350         1.218095
