19
Iteration:    98
 C        -0.175758        -0.104379         0.315092
 C         1.280719        -0.561193         0.497602
 O         2.176023        -0.297024        -0.644504
 C         3.077646        -0.920088         0.388308
 C         2.021499        -1.968700         0.634630
 C         1.714304        -2.538514         2.076162
 C         2.513444        -1.658874         3.080630
 O         2.383025        -0.242857         2.770473
 C         2.366629         0.058627         1.419568
 H        -0.988950        -0.753231         0.498027
 H        -0.275893         0.865581         0.794670
 H        -0.148811         0.028784        -0.797185
 H         4.093632        -1.170261         0.109240
 H         1.862028        -2.610337        -0.201924
 H         0.664172        -2.397300         2.109295
 H         1.844426        -3.680660         2.150082
 H         2.044229        -1.743072         4.112626
 H         3.659543        -1.898074         3.221294
 H         2.655672         1.100554         1.230820
