19
Iteration:  1791
 C        -0.209797        -0.299055         0.298333
 C         1.277338        -0.469982         0.397587
 O         2.300052        -0.189531        -0.712132
 C         3.096708        -0.885731         0.389748
 C         1.920904        -1.924758         0.609104
 C         1.676626        -2.499571         2.016597
 C         2.539090        -1.692019         3.090400
 O         2.360959        -0.293714         2.896609
 C         2.387318         0.093484         1.494790
 H        -0.702565        -0.685385         1.168035
 H        -0.623933         0.691732         0.259002
 H        -0.681954        -0.866494        -0.544421
 H         4.237863        -0.897102         0.226260
 H         1.655780        -2.587225        -0.231471
 H         0.588501        -2.753006         2.259523
 H         2.129957        -3.576853         2.242216
 H         2.286858        -1.846292         4.086086
 H         3.606927        -1.979289         2.930074
 H         2.608416         1.158332         1.278412
