19
Iteration:  4026charge 0 multiplicity 1
 C        -0.132408        -0.231456         0.339178
 C         1.296864        -0.497691         0.467927
 O         2.224240        -0.303400        -0.725106
 C         3.077213        -0.795261         0.450495
 C         1.877132        -1.956010         0.717638
 C         1.873250        -2.654709         2.044607
 C         2.475064        -1.680596         3.113326
 O         2.317065        -0.225655         2.763748
 C         2.331168         0.147191         1.355794
 H        -0.578600        -0.075996         1.308194
 H        -0.276188         0.648248        -0.368056
 H        -0.659890        -1.052029        -0.223514
 H         4.220944        -0.910738         0.317223
 H         1.674305        -2.303613        -0.307877
 H         0.830406        -2.655040         2.237922
 H         2.365821        -3.618679         2.108969
 H         2.070966        -1.953899         4.090766
 H         3.548039        -1.988349         3.248394
 H         2.498265         1.187250         1.283876
