19
Iteration:  4838charge 0 multiplicity 1
 C        -0.072037        -0.134168         0.362953
 C         1.296910        -0.607393         0.454212
 O         2.183098        -0.267030        -0.649718
 C         3.027683        -0.800657         0.414763
 C         1.976326        -1.949919         0.639470
 C         1.871535        -2.611470         1.987939
 C         2.479901        -1.691704         3.083997
 O         2.204448        -0.226375         2.790267
 C         2.411857         0.059561         1.420860
 H        -0.756215        -0.852688         0.788957
 H        -0.187246         0.803880         0.970961
 H        -0.264637        -0.004662        -0.699109
 H         4.043975        -0.895565         0.025070
 H         1.699264        -2.585836        -0.146377
 H         0.911832        -2.998109         1.996864
 H         2.474394        -3.539056         2.127168
 H         1.933900        -1.687360         4.053953
 H         3.478746        -1.868831         3.195459
 H         2.490287         1.140465         1.252114
