19
Iteration:  4250charge 0 multiplicity 1
 C        -0.176411        -0.354623         0.396866
 C         1.298680        -0.480006         0.376466
 O         2.258360        -0.258053        -0.696178
 C         3.156664        -0.863786         0.300548
 C         1.971004        -1.920791         0.647406
 C         1.689958        -2.449157         2.037954
 C         2.432741        -1.658183         3.091186
 O         2.358177        -0.243665         2.846772
 C         2.388530         0.108086         1.412846
 H        -0.567436        -0.158930         1.440043
 H        -0.728001         0.344016        -0.242692
 H        -0.477480        -1.403946         0.193015
 H         4.182555        -1.002543         0.249096
 H         1.984318        -2.688649        -0.109810
 H         0.606527        -2.488028         2.198487
 H         1.858455        -3.552293         2.426132
 H         2.062713        -1.967199         4.093797
 H         3.475468        -2.017190         3.075637
 H         2.545069         1.181303         1.284534
