19
Iteration:   218charge 0 multiplicity 1
 C        -0.168358        -0.083823         0.241208
 C         1.247858        -0.484267         0.495246
 O         2.237826        -0.245150        -0.632226
 C         3.023712        -0.980746         0.428184
 C         1.909517        -1.922693         0.733635
 C         1.830182        -2.605957         1.993024
 C         2.536624        -1.667161         2.995104
 O         2.313096        -0.266119         2.826654
 C         2.393881         0.064889         1.418658
 H        -0.579815         0.384599         1.122660
 H        -0.197618         0.618210        -0.588548
 H        -0.713742        -1.004133         0.137508
 H         4.046220        -1.315595         0.471913
 H         1.707728        -2.502530        -0.121966
 H         0.764320        -2.854772         2.242403
 H         2.411213        -3.611702         1.926761
 H         2.218576        -1.811478         4.035452
 H         3.539606        -1.871854         2.946218
 H         2.641225         1.097846         1.242093
