19
Iteration:  1000charge 0 multiplicity 1
 C        -0.078944        -0.072264         0.289363
 C         1.245209        -0.606934         0.424886
 O         2.191546        -0.290442        -0.638116
 C         3.082670        -0.817702         0.440502
 C         1.923997        -2.032047         0.607856
 C         1.783655        -2.603452         2.044434
 C         2.583823        -1.650746         3.117186
 O         2.359630        -0.260846         2.794380
 C         2.226818         0.070233         1.413291
 H        -0.808117        -0.509962         0.920620
 H        -0.047034         1.002459         0.581230
 H        -0.477623        -0.112007        -0.728808
 H         4.140168        -0.884853         0.544509
 H         1.932486        -2.744678        -0.240620
 H         0.579040        -2.660458         2.145204
 H         2.180722        -3.599529         2.098869
 H         2.313823        -1.785691         4.247848
 H         3.795656        -1.727456         2.815023
 H         2.298313         1.181079         1.249604
