19
Iteration:  2036
 C        -0.137202        -0.046095         0.361227
 C         1.259556        -0.564306         0.434299
 O         2.180099        -0.289366        -0.716748
 C         3.126167        -0.849419         0.430724
 C         2.050893        -1.964775         0.679773
 C         1.850393        -2.635065         2.044170
 C         2.483023        -1.704379         2.994989
 O         2.201940        -0.259534         2.813814
 C         2.340996         0.097509         1.442230
 H        -0.798871        -0.227104         1.178331
 H        -0.005236         1.025298         0.432253
 H        -0.642155        -0.356334        -0.513378
 H         4.171340        -0.994431         0.321854
 H         2.018833        -2.707331        -0.182836
 H         0.800188        -2.582490         2.080479
 H         2.253216        -3.720329         2.090504
 H         2.248094        -2.118369         4.049147
 H         3.555858        -1.934757         3.014239
 H         2.529107         1.184153         1.508019
