19
Iteration:  1281charge 0 multiplicity 1
 C        -0.265375        -0.241162         0.269560
 C         1.273802        -0.463487         0.527827
 O         2.253416        -0.242484        -0.666868
 C         3.053118        -0.894942         0.379562
 C         1.986253        -1.913497         0.603563
 C         1.738109        -2.540420         2.009899
 C         2.488672        -1.648109         3.112250
 O         2.317759        -0.248738         2.835074
 C         2.478166         0.031071         1.448738
 H        -0.632172        -0.092859         1.272947
 H        -0.396991         0.606784        -0.396046
 H        -0.518179        -1.199100        -0.171836
 H         4.095341        -1.090597        -0.010337
 H         1.867836        -2.573444        -0.290368
 H         0.605318        -2.669793         2.199861
 H         2.184480        -3.609282         2.032006
 H         2.109264        -1.855422         4.129437
 H         3.678690        -1.891040         2.999733
 H         2.768967         1.075360         1.513143
