19
Iteration:  3176
 C        -0.235946        -0.367087         0.185560
 C         1.221778        -0.491279         0.470361
 O         2.320296        -0.146892        -0.527766
 C         3.047933        -0.823868         0.510381
 C         1.913771        -1.857303         0.677178
 C         1.734303        -2.555523         1.978747
 C         2.569405        -1.722755         2.982116
 O         2.369602        -0.301980         2.802189
 C         2.374150         0.080473         1.466403
 H        -0.748519        -0.752040         1.158913
 H        -0.429154         0.732885         0.082718
 H        -0.462103        -1.017138        -0.674538
 H         4.086482        -0.991375         0.102544
 H         1.776224        -2.489718        -0.264565
 H         0.604134        -2.320537         2.103580
 H         2.006249        -3.564548         1.964319
 H         2.319998        -1.950112         4.034473
 H         3.744577        -1.981628         2.731175
 H         2.497656         1.158545         1.314964
