19
Iteration:  1275charge 0 multiplicity 1
 C        -0.196556        -0.272720         0.273374
 C         1.266608        -0.411293         0.499427
 O         2.245280        -0.209879        -0.669462
 C         3.050775        -0.958343         0.356991
 C         1.964215        -1.911341         0.655774
 C         1.745882        -2.587946         2.019614
 C         2.472352        -1.667584         3.087543
 O         2.301551        -0.247044         2.814916
 C         2.527748         0.085477         1.458327
 H        -0.691174        -0.286129         1.284675
 H        -0.558916         0.572897        -0.368772
 H        -0.673017        -1.204767        -0.131078
 H         4.111375        -1.079605         0.238639
 H         1.709785        -2.356970        -0.311280
 H         0.740735        -2.802919         2.269271
 H         2.148857        -3.572987         2.077402
 H         2.193279        -1.806632         4.170816
 H         3.470679        -1.851852         2.996437
 H         2.764604         1.179122         1.417732
