19
Iteration:  1931charge 0 multiplicity 1
 C        -0.211978        -0.088227         0.269846
 C         1.193720        -0.650300         0.411945
 O         2.295586        -0.205289        -0.624562
 C         3.113484        -0.852698         0.439822
 C         2.004986        -1.931580         0.627400
 C         1.791859        -2.566217         2.114176
 C         2.583345        -1.729478         3.053466
 O         2.339121        -0.282287         2.812036
 C         2.233512         0.060920         1.396897
 H        -0.727186        -0.175004         1.260288
 H        -0.065568         0.991892        -0.028278
 H        -0.912539        -0.505349        -0.561974
 H         4.228203        -0.873281         0.232199
 H         1.991919        -2.638288        -0.164824
 H         0.673591        -2.592864         2.243075
 H         1.978917        -3.575221         2.168050
 H         2.277799        -2.015159         4.028140
 H         3.531262        -2.096208         2.757350
 H         2.299827         1.159307         1.489615
