19
Iteration:  2420
 C        -0.140495        -0.003690         0.259070
 C         1.263343        -0.559498         0.413444
 O         2.224083        -0.257972        -0.739189
 C         3.042902        -0.768376         0.431291
 C         2.008896        -1.974170         0.701039
 C         1.850832        -2.656238         2.079943
 C         2.578778        -1.812068         3.125375
 O         2.246961        -0.318343         2.783226
 C         2.278025         0.085048         1.452523
 H        -0.650239        -0.360801         1.203909
 H        -0.079187         1.128111         0.332713
 H        -0.823340        -0.342052        -0.619094
 H         4.139980        -0.682288         0.196327
 H         2.000789        -2.598438        -0.277134
 H         0.678116        -2.656858         2.247825
 H         2.287712        -3.694924         2.029802
 H         2.146243        -1.996712         4.154361
 H         3.632239        -1.761760         3.140549
 H         2.476125         1.236863         1.514148
