19
Iteration:  2718
 C        -0.202555        -0.090109         0.322376
 C         1.212897        -0.547615         0.360093
 O         2.281195        -0.218482        -0.651913
 C         3.040851        -0.832993         0.483169
 C         2.048010        -2.006313         0.630235
 C         1.861685        -2.630044         1.928758
 C         2.452214        -1.682896         3.078861
 O         2.308193        -0.281887         2.865353
 C         2.304992         0.024477         1.424718
 H        -0.824313        -0.359656         1.263049
 H         0.001408         0.995416         0.321245
 H        -0.947184        -0.326742        -0.499974
 H         4.194253        -0.840897         0.251279
 H         2.052195        -2.541451        -0.337836
 H         0.929716        -2.894908         2.314577
 H         2.538247        -3.558386         2.026658
 H         1.887605        -1.898125         4.046682
 H         3.505007        -1.666785         3.310530
 H         2.549463         1.068708         1.332233
