19
Iteration:  3399
 C        -0.201703        -0.179770         0.091540
 C         1.210311        -0.498165         0.438869
 O         2.229545        -0.242398        -0.692712
 C         3.038020        -0.804410         0.475318
 C         1.893949        -1.908342         0.683267
 C         1.856788        -2.547270         2.074373
 C         2.663509        -1.700904         3.060381
 O         2.300179        -0.380990         2.890765
 C         2.308919         0.081675         1.527960
 H        -0.856525        -0.691303         0.808613
 H        -0.317107         0.909518         0.238543
 H        -0.358010        -0.320622        -1.019414
 H         4.073303        -0.962595         0.145825
 H         1.996015        -2.574581        -0.171197
 H         0.743279        -2.767444         2.265227
 H         2.150343        -3.548576         2.084311
 H         2.543439        -1.972211         4.210303
 H         3.707986        -1.829012         2.799016
 H         2.534655         1.204568         1.439845
