19
Iteration:  3659
 C        -0.114069        -0.213030         0.295197
 C         1.272794        -0.606713         0.571850
 O         2.218060        -0.206861        -0.595744
 C         3.100009        -0.897028         0.437795
 C         1.959366        -1.962589         0.574434
 C         1.829182        -2.629861         1.979243
 C         2.425520        -1.560026         3.057384
 O         2.335086        -0.218324         2.781403
 C         2.322379         0.069222         1.414400
 H        -0.794467        -0.908671         0.796018
 H        -0.363304         0.780914         0.704380
 H        -0.317647        -0.072772        -0.797141
 H         4.050546        -1.044129         0.054592
 H         1.688778        -2.576424        -0.298352
 H         0.799229        -3.097774         2.309842
 H         2.410395        -3.570748         1.955121
 H         1.989848        -1.715950         4.033909
 H         3.516319        -1.782372         3.109160
 H         2.563389         1.183197         1.385329
