19
Iteration:   342charge 0 multiplicity 1
 C        -0.114558        -0.192417         0.297009
 C         1.302244        -0.468982         0.535880
 O         2.328106        -0.201447        -0.702425
 C         2.986740        -1.028100         0.279754
 C         1.744133        -1.940235         0.667462
 C         1.824585        -2.541271         2.069008
 C         2.510656        -1.571370         3.052979
 O         2.242782        -0.288944         2.854212
 C         2.466497         0.078083         1.461568
 H        -0.621992        -0.956679         0.953854
 H        -0.495176         0.797829         0.482875
 H        -0.294707        -0.359294        -0.758087
 H         3.977248        -1.427270        -0.140295
 H         1.256368        -2.467692        -0.171054
 H         1.012827        -3.089425         2.554904
 H         2.648851        -3.444818         2.109761
 H         2.177820        -1.762375         4.059704
 H         3.634358        -1.793292         3.072935
 H         2.858182         1.115890         1.228434
