19
Iteration:  1944
 C        -0.192720        -0.152003         0.235978
 C         1.295150        -0.489321         0.388199
 O         2.239363        -0.232868        -0.627599
 C         3.074122        -0.805823         0.483480
 C         1.934960        -1.966612         0.659435
 C         1.718188        -2.576221         2.027905
 C         2.557749        -1.719106         3.041012
 O         2.386497        -0.298306         2.816276
 C         2.309834         0.018199         1.462569
 H        -0.639982        -0.396277         1.227315
 H        -0.454244         0.897427         0.043043
 H        -0.639134        -0.865380        -0.487825
 H         4.181299        -0.846685         0.296360
 H         1.807308        -2.630182        -0.181195
 H         0.741639        -2.513106         2.313698
 H         2.150795        -3.531933         2.056392
 H         2.365902        -1.790003         4.051814
 H         3.619205        -1.808182         3.016707
 H         2.422641         1.061490         1.246692
