19
Iteration:  2639charge 0 multiplicity 1
 C        -0.152236        -0.209290         0.214895
 C         1.208620        -0.645679         0.432146
 O         2.361732        -0.151858        -0.623921
 C         2.997095        -0.753537         0.493372
 C         1.914467        -1.934561         0.623255
 C         1.735363        -2.519509         1.975973
 C         2.575301        -1.738172         3.042979
 O         2.402594        -0.334398         2.814005
 C         2.223574         0.062698         1.483388
 H        -0.623338        -0.007729         1.191251
 H        -0.189247         0.762402        -0.287105
 H        -0.810473        -0.805049        -0.372821
 H         4.075178        -0.924968         0.613077
 H         2.042767        -2.669335        -0.212984
 H         0.821029        -2.478578         2.451286
 H         1.953112        -3.688949         2.072504
 H         2.386521        -2.066243         4.063268
 H         3.720660        -1.867687         2.867782
 H         2.306112         1.172312         1.562515
