19
Iteration:   328charge 0 multiplicity 1
 C        -0.216935        -0.168577         0.318223
 C         1.306373        -0.432274         0.473267
 O         2.258989        -0.242516        -0.648142
 C         3.048304        -1.054527         0.314532
 C         1.852606        -1.871811         0.643303
 C         1.881322        -2.492561         2.045698
 C         2.504131        -1.676400         3.142243
 O         2.237528        -0.212594         2.797667
 C         2.471311        -0.039496         1.409297
 H        -0.885590        -0.830512         0.957266
 H        -0.446641         0.884631         0.548763
 H        -0.406784        -0.317913        -0.719368
 H         4.065901        -1.287858         0.163852
 H         1.588935        -2.646871        -0.003205
 H         0.803405        -2.658762         2.223512
 H         2.409263        -3.484749         1.871603
 H         2.147435        -1.932392         4.143710
 H         3.717239        -1.770144         3.095715
 H         2.829998         0.947687         1.350855
