19
Iteration:  2603charge 0 multiplicity 1
 C        -0.106420        -0.147368         0.224129
 C         1.265696        -0.499744         0.528429
 O         2.192473        -0.228258        -0.645638
 C         3.053782        -0.836973         0.387371
 C         1.957959        -1.912176         0.636632
 C         1.874817        -2.584449         2.008744
 C         2.518936        -1.683032         3.054746
 O         2.209648        -0.332997         2.870070
 C         2.383267         0.060852         1.481785
 H        -0.742991        -0.485583         0.998612
 H        -0.052592         0.931149         0.131893
 H        -0.382564        -0.717913        -0.674445
 H         4.055667        -1.015625         0.059973
 H         1.797728        -2.645663        -0.186614
 H         0.727502        -2.708064         2.173466
 H         2.415325        -3.622332         1.877889
 H         2.111818        -2.061543         4.031175
 H         3.601176        -1.837271         2.906762
 H         2.587841         1.168896         1.419618
