19
Iteration:  4173charge 0 multiplicity 1
 C        -0.133894         0.015158         0.189300
 C         1.181524        -0.529271         0.490160
 O         2.177911        -0.366470        -0.745596
 C         3.052896        -0.911340         0.446893
 C         1.947626        -1.938458         0.751639
 C         1.985272        -2.557904         2.090339
 C         2.672125        -1.627962         3.108678
 O         2.186980        -0.312018         2.805539
 C         2.268109         0.036835         1.421458
 H        -0.794803        -0.229100         1.024928
 H        -0.094751         1.038728        -0.091114
 H        -0.486157        -0.464499        -0.721955
 H         4.057193        -1.025506         0.182014
 H         1.691401        -2.696550         0.029379
 H         1.005557        -2.906258         2.387177
 H         2.649400        -3.487601         2.200077
 H         2.169925        -1.838872         4.043454
 H         3.772265        -1.726724         3.000643
 H         2.434536         1.131504         1.189947
