19
Iteration:  3950charge 0 multiplicity 1
 C        -0.209578        -0.097856         0.177015
 C         1.207365        -0.531977         0.525187
 O         2.223787        -0.397382        -0.675530
 C         3.099384        -0.873202         0.468409
 C         1.870551        -1.915150         0.713990
 C         1.903495        -2.648582         2.080607
 C         2.644245        -1.617091         3.008774
 O         2.188038        -0.241643         2.806739
 C         2.381212         0.138656         1.455925
 H        -0.842414        -0.329709         0.988965
 H        -0.315531         0.984442         0.130463
 H        -0.535285        -0.783768        -0.601877
 H         4.218779        -0.928371         0.282146
 H         1.808023        -2.546207        -0.214353
 H         0.859034        -2.864602         2.273135
 H         2.597587        -3.482683         1.803912
 H         2.390281        -1.846105         4.038431
 H         3.823279        -1.832131         2.913717
 H         2.573180         1.182289         1.315750
