19
Iteration:  2008charge 0 multiplicity 1
 C        -0.154118        -0.157144         0.332281
 C         1.257838        -0.607422         0.413766
 O         2.256282        -0.203114        -0.652996
 C         3.132086        -0.867582         0.425587
 C         1.944488        -1.908578         0.638406
 C         1.797859        -2.542339         2.010567
 C         2.497929        -1.717130         3.080316
 O         2.370569        -0.249765         2.801274
 C         2.253655         0.032575         1.426140
 H        -0.755018        -0.466196         1.241040
 H        -0.156291         0.961807         0.336113
 H        -0.673475        -0.536679        -0.621261
 H         4.260885        -0.998500         0.362605
 H         1.849548        -2.662296        -0.094076
 H         0.602844        -2.597287         2.183976
 H         2.093531        -3.557401         1.888234
 H         2.049935        -1.960279         4.001332
 H         3.541928        -2.060959         3.175592
 H         2.339072         1.126517         1.411276
