19
Iteration:  2786
 C        -0.173258        -0.264239         0.313605
 C         1.238198        -0.463400         0.426472
 O         2.387290        -0.190622        -0.588180
 C         2.995780        -0.928249         0.428462
 C         1.880250        -1.874518         0.574889
 C         1.824612        -2.550893         1.972174
 C         2.579695        -1.628056         3.001580
 O         2.265154        -0.306144         2.861939
 C         2.309277         0.063953         1.479730
 H        -0.777069        -0.883520         0.978547
 H        -0.451664         0.812648         0.411268
 H        -0.671364        -0.674207        -0.549703
 H         4.084093        -1.131901         0.313763
 H         1.926996        -2.633464        -0.167629
 H         0.815633        -2.826057         2.172869
 H         2.406752        -3.417858         1.837076
 H         2.092075        -1.840316         3.992795
 H         3.542124        -1.986584         3.001197
 H         2.675041         1.070267         1.453765
