19
Iteration:   335
 C        -0.154570        -0.188881         0.328188
 C         1.304003        -0.445980         0.495809
 O         2.301860        -0.212031        -0.672473
 C         3.009407        -1.051684         0.271080
 C         1.791721        -1.901703         0.664781
 C         1.856975        -2.493658         2.068242
 C         2.518215        -1.647839         3.096483
 O         2.232596        -0.250908         2.825448
 C         2.489306         0.024289         1.426542
 H        -0.892243        -0.857776         0.737025
 H        -0.476863         0.845884         0.568667
 H        -0.463106        -0.505204        -0.743915
 H         4.039683        -1.422812         0.071687
 H         1.360618        -2.633794        -0.128130
 H         0.854135        -2.890399         2.361112
 H         2.581311        -3.261489         2.073498
 H         2.132095        -1.982249         4.103856
 H         3.588504        -1.701854         3.094846
 H         2.878798         1.077348         1.384909
