19
Iteration:  4168
 C        -0.168084        -0.000730         0.182571
 C         1.239108        -0.511771         0.483579
 O         2.163402        -0.363661        -0.687310
 C         3.036284        -0.939761         0.412456
 C         1.959623        -1.963954         0.731764
 C         1.983901        -2.597742         2.111334
 C         2.678759        -1.593022         3.066919
 O         2.165345        -0.293478         2.774962
 C         2.266903         0.036011         1.458156
 H        -0.866254        -0.200303         1.027174
 H         0.033698         1.131649         0.013151
 H        -0.471642        -0.376308        -0.826770
 H         4.161575        -0.997863         0.144838
 H         1.664736        -2.726717        -0.035907
 H         0.900397        -2.832403         2.347920
 H         2.660609        -3.450188         2.202355
 H         2.293073        -1.856448         4.077589
 H         3.782282        -1.633110         3.162296
 H         2.547711         1.089402         1.307998
