19
Iteration:  2045
 C        -0.092060        -0.056133         0.360871
 C         1.324799        -0.564285         0.454552
 O         2.169273        -0.245243        -0.690283
 C         3.127686        -0.916842         0.419745
 C         1.989450        -1.902106         0.703259
 C         1.852574        -2.629713         1.979700
 C         2.528606        -1.735989         3.057562
 O         2.152143        -0.296477         2.809181
 C         2.328361         0.091908         1.415737
 H        -0.741570        -0.370296         1.223114
 H        -0.076031         1.068059         0.232170
 H        -0.599277        -0.386826        -0.544720
 H         4.185650        -1.035743         0.191831
 H         1.815698        -2.645449        -0.156879
 H         0.756544        -2.766089         2.411878
 H         2.421240        -3.648344         2.026116
 H         2.137467        -1.685927         4.094247
 H         3.610920        -1.658807         2.926490
 H         2.562139         1.139389         1.179997
