19
Iteration:   851charge 0 multiplicity 1
 C        -0.099586        -0.135291         0.378881
 C         1.296868        -0.456274         0.506950
 O         2.271188        -0.302377        -0.653470
 C         3.074514        -0.968123         0.378362
 C         1.799348        -1.853525         0.621988
 C         1.913959        -2.584877         1.980322
 C         2.465680        -1.626847         3.031192
 O         2.187556        -0.231288         2.809131
 C         2.377612         0.022733         1.453128
 H        -0.587372        -0.252813         1.419698
 H        -0.336283         0.849311        -0.156396
 H        -0.524377        -1.015381        -0.205374
 H         4.095716        -1.451678         0.203324
 H         1.707499        -2.583892        -0.236744
 H         1.065977        -3.078984         2.385375
 H         2.666045        -3.445499         1.707292
 H         2.195692        -1.783024         4.085256
 H         3.659784        -1.760727         2.968040
 H         2.703108         1.082639         1.314043
