19
Iteration:  4257
 C        -0.194426        -0.400748         0.423094
 C         1.271948        -0.457722         0.363279
 O         2.269336        -0.290952        -0.722997
 C         3.111291        -0.860768         0.419366
 C         2.037997        -1.885990         0.652107
 C         1.652994        -2.462280         2.026007
 C         2.453269        -1.684101         3.101358
 O         2.358016        -0.254465         2.818504
 C         2.394286         0.117368         1.368206
 H        -0.575676         0.001036         1.407029
 H        -0.610962         0.498127        -0.126539
 H        -0.728737        -1.334174         0.100989
 H         4.221083        -0.860276         0.159943
 H         1.926718        -2.614686        -0.189611
 H         0.540674        -2.437415         2.148901
 H         2.052048        -3.476877         2.176868
 H         2.154689        -1.712016         4.145787
 H         3.459605        -2.149086         3.199323
 H         2.733918         1.213610         1.385776
