19
Iteration:   260charge 0 multiplicity 1
 C        -0.185687        -0.169490         0.292747
 C         1.279192        -0.450002         0.444393
 O         2.272797        -0.207099        -0.683685
 C         3.015324        -0.981482         0.422813
 C         1.937084        -1.939971         0.664305
 C         1.821247        -2.478593         2.043388
 C         2.525182        -1.723665         3.031985
 O         2.285627        -0.288204         2.837316
 C         2.396191         0.036224         1.452574
 H        -0.745786         0.063825         1.189043
 H        -0.334949         0.719048        -0.370340
 H        -0.751142        -1.084880        -0.093805
 H         4.002630        -1.196273         0.013006
 H         1.727614        -2.725013        -0.080790
 H         0.725984        -2.333578         2.345415
 H         2.156850        -3.481235         2.136861
 H         2.214167        -1.936143         4.115993
 H         3.710432        -1.851979         2.990396
 H         2.832716         1.025744         1.254492
