19
Iteration:   160charge 0 multiplicity 1
 C        -0.179624        -0.095484         0.358186
 C         1.288002        -0.530458         0.430278
 O         2.219759        -0.284373        -0.612531
 C         3.088186        -0.922520         0.446727
 C         1.945663        -1.978119         0.661820
 C         1.776263        -2.543137         2.022584
 C         2.530111        -1.652878         2.989365
 O         2.287297        -0.261689         2.774434
 C         2.407184         0.034683         1.432510
 H        -0.721914        -0.193650         1.300224
 H        -0.317974         0.931848        -0.031084
 H        -0.645853        -0.641728        -0.538798
 H         4.168965        -1.009473         0.187614
 H         1.657857        -2.625571        -0.217706
 H         0.682619        -2.569993         2.375164
 H         2.238664        -3.520185         2.132709
 H         2.133000        -1.800202         4.021789
 H         3.540142        -1.867170         2.988122
 H         2.817013         1.074176         1.278866
