19
Iteration:   523charge 0 multiplicity 1
 C        -0.134296        -0.065478         0.349425
 C         1.298310        -0.514463         0.381356
 O         2.213781        -0.255407        -0.717681
 C         3.075103        -0.945885         0.456424
 C         1.885952        -1.952814         0.675348
 C         1.909853        -2.668688         2.059857
 C         2.452126        -1.640352         3.058472
 O         2.289504        -0.236251         2.787937
 C         2.332786         0.059595         1.427507
 H        -0.664281        -0.453661         1.238699
 H        -0.106891         1.017942         0.514398
 H        -0.698408        -0.389231        -0.526231
 H         4.056519        -1.214863         0.153263
 H         1.739960        -2.635819        -0.162547
 H         0.873218        -2.870135         2.443906
 H         2.499358        -3.535775         2.113986
 H         2.048873        -1.828810         4.075142
 H         3.612875        -1.750527         3.083226
 H         2.679554         1.054034         1.220386
