19
Iteration:  1314
 C        -0.088348        -0.117337         0.236102
 C         1.273202        -0.627092         0.388645
 O         2.199637        -0.207442        -0.655604
 C         3.001635        -0.770207         0.496874
 C         2.020564        -1.998437         0.616873
 C         1.717750        -2.601129         2.095047
 C         2.552043        -1.664849         3.097177
 O         2.411048        -0.275342         2.788884
 C         2.202182         0.024778         1.432055
 H        -0.460594         0.103044         1.289915
 H        -0.050111         0.851936        -0.277713
 H        -0.838107        -0.808489        -0.146407
 H         4.065402        -0.973195         0.200336
 H         2.185516        -2.764656        -0.160166
 H         0.576859        -2.501181         2.168690
 H         2.093249        -3.695956         2.158205
 H         2.335545        -1.751052         4.197874
 H         3.757249        -2.007573         3.047789
 H         2.348846         1.111483         1.218866
