19
Iteration:  4267
 C        -0.252637        -0.350743         0.420806
 C         1.340691        -0.554100         0.442948
 O         2.277456        -0.303695        -0.758446
 C         3.078455        -0.801978         0.505659
 C         2.011976        -1.860824         0.674251
 C         1.702216        -2.497742         2.037146
 C         2.431037        -1.668962         3.093885
 O         2.374774        -0.257538         2.732429
 C         2.398899         0.104349         1.409914
 H        -0.394947        -0.271338         1.506374
 H        -0.374722         0.484688        -0.289138
 H        -0.887796        -1.174351         0.045676
 H         4.189065        -0.941722         0.203351
 H         1.822832        -2.472313        -0.243553
 H         0.597715        -2.430804         2.167070
 H         1.898565        -3.500799         1.817897
 H         1.937461        -1.691569         4.068287
 H         3.533536        -1.883379         3.025005
 H         2.655994         1.210356         1.281578
