19
Iteration:  3082
 C        -0.101970        -0.086592         0.397112
 C         1.315382        -0.496511         0.484837
 O         2.200111        -0.249714        -0.707463
 C         3.096872        -0.916956         0.394811
 C         1.974856        -1.932164         0.604796
 C         1.985544        -2.611626         1.913224
 C         2.480870        -1.627259         3.111969
 O         2.067837        -0.333231         2.822720
 C         2.345628         0.058423         1.491733
 H        -0.705327        -0.259677         1.255369
 H        -0.183796         0.943656         0.078928
 H        -0.493856        -0.796477        -0.381556
 H         4.154404        -0.979343         0.197070
 H         1.775554        -2.504533        -0.287690
 H         1.029223        -2.717388         2.325905
 H         2.680706        -3.544392         1.920407
 H         1.965995        -2.150503         3.984581
 H         3.635007        -1.697099         3.083239
 H         2.613544         1.172856         1.381696
