19
Iteration:  4953charge 0 multiplicity 1
 C        -0.179011        -0.306149         0.142874
 C         1.244426        -0.658106         0.447668
 O         2.241912        -0.146863        -0.575331
 C         3.034558        -0.740006         0.493768
 C         2.018767        -1.859476         0.581356
 C         1.665716        -2.425642         2.065145
 C         2.617266        -1.746097         3.029611
 O         2.448193        -0.324586         2.790365
 C         2.269571         0.013274         1.520440
 H        -0.530137         0.368501         0.957512
 H        -0.296452         0.360513        -0.656801
 H        -0.868145        -1.140800         0.044754
 H         4.132357        -0.926895         0.410229
 H         1.823137        -2.572671        -0.296148
 H         0.489391        -2.562704         2.274134
 H         1.845849        -3.517513         2.168349
 H         2.240095        -1.839257         4.093551
 H         3.598041        -2.252666         2.934076
 H         2.411200         1.085781         1.446069
