19
Iteration:  4819
 C        -0.251685        -0.253690         0.318495
 C         1.278765        -0.434458         0.503712
 O         2.259735        -0.245796        -0.671993
 C         3.163110        -0.877088         0.403611
 C         1.956283        -1.891790         0.647788
 C         1.825249        -2.628281         2.069679
 C         2.446293        -1.648941         3.039240
 O         2.315367        -0.302837         2.803909
 C         2.361251         0.122481         1.418790
 H        -0.774100        -1.038159         0.781647
 H        -0.593869         0.633258         0.829387
 H        -0.456615        -0.118888        -0.733499
 H         4.184593        -1.024508         0.199098
 H         1.892433        -2.494721        -0.276446
 H         0.686673        -2.842380         2.223195
 H         2.251398        -3.629048         1.935939
 H         2.027428        -1.790927         4.099211
 H         3.560086        -1.977811         2.874335
 H         2.606162         1.194692         1.326890
