19
Iteration:  4521charge 0 multiplicity 1
 C        -0.192253        -0.111562         0.316683
 C         1.253609        -0.509642         0.468879
 O         2.313178        -0.312055        -0.684119
 C         3.021173        -0.894236         0.384396
 C         1.873588        -1.974375         0.663321
 C         1.920310        -2.623530         2.071953
 C         2.638760        -1.610857         3.125720
 O         2.111644        -0.281294         2.742856
 C         2.405895         0.095113         1.433386
 H        -0.637140        -0.190295         1.341246
 H        -0.191657         0.923049        -0.043123
 H        -0.740731        -0.695751        -0.438725
 H         4.092666        -1.056715         0.101537
 H         1.605285        -2.544744        -0.235903
 H         0.902721        -2.914509         2.512095
 H         2.568803        -3.484057         1.957513
 H         2.320018        -1.809948         4.154473
 H         3.694762        -1.635153         3.000163
 H         2.465047         1.235818         1.321091
