19
Iteration:  2289charge 0 multiplicity 1
 C        -0.245046        -0.164662         0.225150
 C         1.318002        -0.435019         0.500419
 O         2.327065        -0.162764        -0.605997
 C         3.052843        -0.885652         0.361766
 C         1.894083        -1.918510         0.624247
 C         1.844822        -2.579985         2.070166
 C         2.577485        -1.706516         3.051038
 O         2.237766        -0.339252         2.808651
 C         2.375649         0.026862         1.471816
 H        -0.887720        -0.167853         1.078595
 H        -0.659360         0.679826        -0.301432
 H        -0.575022        -1.039722        -0.351624
 H         4.097410        -1.188737         0.147398
 H         1.647961        -2.537249        -0.285543
 H         0.727303        -2.666669         2.158887
 H         2.106631        -3.524065         2.246389
 H         2.306032        -1.949604         4.106623
 H         3.654647        -1.940530         3.056131
 H         2.669727         1.122380         1.433915
