19
Iteration:  1372
 C        -0.143577        -0.158217         0.207577
 C         1.288694        -0.430013         0.465789
 O         2.279830        -0.175576        -0.658681
 C         3.066198        -0.995592         0.408490
 C         1.780997        -1.960847         0.702679
 C         1.892503        -2.586755         2.099874
 C         2.565943        -1.609913         3.025574
 O         2.178514        -0.282114         2.824160
 C         2.415469         0.013650         1.433899
 H        -0.631220        -0.632880         1.111706
 H        -0.546937         0.874536         0.373921
 H        -0.641527        -0.478043        -0.696991
 H         4.059660        -1.234592         0.106254
 H         1.374940        -2.595989        -0.053054
 H         0.986586        -3.127285         2.467717
 H         2.650179        -3.456322         2.049938
 H         2.372009        -1.812016         4.175094
 H         3.766600        -1.698575         2.740595
 H         2.811011         1.010414         1.136220
