19
Iteration:    92charge 0 multiplicity 1
 C        -0.157036        -0.083591         0.308381
 C         1.258562        -0.594123         0.511443
 O         2.156880        -0.336300        -0.669264
 C         3.131604        -0.869601         0.365235
 C         2.009042        -2.042710         0.674329
 C         1.711158        -2.508141         2.046438
 C         2.502636        -1.655561         3.050162
 O         2.406661        -0.240350         2.829365
 C         2.343372         0.051524         1.424761
 H        -1.129076        -0.645644         0.552776
 H        -0.204425         0.929022         0.769274
 H         0.071392         0.176648        -0.735490
 H         4.222455        -0.865026         0.090653
 H         1.880552        -2.757689        -0.194453
 H         0.563809        -2.340188         2.130180
 H         1.917402        -3.538687         2.057561
 H         2.064684        -1.780564         4.008148
 H         3.521242        -1.882348         3.136781
 H         2.420497         1.138336         1.242019
