19
Iteration:  3599
 C        -0.123440        -0.008511         0.170077
 C         1.238711        -0.560467         0.480338
 O         2.232200        -0.214160        -0.625967
 C         3.066032        -0.880983         0.436814
 C         1.964615        -2.025257         0.696231
 C         1.912606        -2.652077         2.091694
 C         2.624621        -1.625585         2.972676
 O         2.110670        -0.304364         2.843827
 C         2.261340         0.053322         1.438501
 H        -0.738691        -0.409085         1.030667
 H         0.045446         1.038664         0.429516
 H        -0.548638        -0.442477        -0.718301
 H         4.171012        -1.068658         0.161326
 H         1.771369        -2.730126        -0.139475
 H         0.997691        -2.778436         2.492294
 H         2.525400        -3.481412         2.082679
 H         2.566250        -1.906574         4.073542
 H         3.710030        -1.762155         2.651414
 H         2.601891         1.019953         1.202033
