19
Iteration:  1111
 C        -0.134928        -0.152087         0.262446
 C         1.271705        -0.663093         0.332525
 O         2.095505        -0.266183        -0.642244
 C         3.105152        -0.794077         0.507564
 C         2.025999        -1.935905         0.605668
 C         1.709286        -2.458998         2.023619
 C         2.526773        -1.730443         3.076768
 O         2.369403        -0.292625         2.866762
 C         2.364050         0.099166         1.430341
 H        -0.437497        -0.310253         1.295160
 H        -0.067203         0.830011        -0.227610
 H        -0.843891        -0.785053        -0.273680
 H         4.137169        -0.825223         0.225742
 H         2.250802        -2.689899        -0.192532
 H         0.621569        -2.535916         2.392891
 H         2.001002        -3.473398         2.140748
 H         2.208348        -2.038733         4.103884
 H         3.487574        -1.970344         3.006848
 H         2.717688         1.153869         1.253412
