19
Iteration:  3713
 C        -0.133692        -0.377387         0.315511
 C         1.272162        -0.468737         0.462813
 O         2.263725        -0.247240        -0.684330
 C         3.120586        -0.755255         0.425773
 C         1.960069        -1.893879         0.687374
 C         1.647989        -2.499278         2.035242
 C         2.465182        -1.745692         3.040635
 O         2.410825        -0.294884         2.816656
 C         2.343834         0.119568         1.413714
 H        -0.724018        -0.731055         1.140431
 H        -0.513829         0.631358         0.281418
 H        -0.430772        -1.044563        -0.507764
 H         4.085319        -0.891435         0.062188
 H         1.770369        -2.615341        -0.138916
 H         0.660433        -2.321005         2.268099
 H         1.888455        -3.491720         1.951457
 H         2.076086        -1.872788         4.033307
 H         3.565742        -1.949983         2.970665
 H         2.656805         1.200700         1.433726
