19
Iteration:  3649charge 0 multiplicity 1
 C        -0.203579        -0.143552         0.291508
 C         1.287971        -0.527828         0.471110
 O         2.214672        -0.274511        -0.630282
 C         3.091760        -0.866433         0.397067
 C         1.926594        -1.945135         0.657641
 C         1.889523        -2.683301         1.978263
 C         2.453914        -1.626917         3.069282
 O         2.259593        -0.194967         2.825042
 C         2.390977         0.060785         1.467585
 H        -0.919849        -0.882384         0.674423
 H        -0.270057         0.862629         0.680125
 H        -0.269183        -0.108520        -0.818599
 H         4.091068        -1.064919         0.141582
 H         1.815114        -2.615298        -0.193831
 H         0.775387        -3.138944         2.227265
 H         2.768586        -3.450502         2.047883
 H         2.202147        -1.768640         4.131634
 H         3.488805        -1.907199         3.008445
 H         2.612946         1.166050         1.183824
