19
Iteration:  2433charge 0 multiplicity 1
 C        -0.104772        -0.067776         0.291936
 C         1.251959        -0.578859         0.421270
 O         2.210931        -0.290866        -0.725524
 C         3.083686        -0.683076         0.357205
 C         2.014870        -1.837199         0.662831
 C         1.800726        -2.585504         2.058041
 C         2.583521        -1.767041         3.146344
 O         2.242551        -0.414128         2.849891
 C         2.276746         0.050344         1.442488
 H        -0.822194        -0.109252         1.167253
 H         0.074889         1.006323         0.037355
 H        -0.566434        -0.492645        -0.620706
 H         4.185319        -0.968298         0.128928
 H         2.051264        -2.669307        -0.087048
 H         0.621342        -2.738099         2.443028
 H         2.130670        -3.577426         1.961869
 H         2.346769        -1.767640         4.204573
 H         3.569803        -2.182751         2.999020
 H         2.204359         1.192672         1.397955
