19
Iteration:  1685
 C        -0.144612        -0.139302         0.327068
 C         1.313237        -0.497484         0.519685
 O         2.330573        -0.184766        -0.646332
 C         3.007036        -0.971788         0.384434
 C         1.886150        -1.976792         0.657742
 C         1.917525        -2.661421         2.006491
 C         2.465597        -1.593150         3.006785
 O         2.210115        -0.268332         2.797748
 C         2.339443         0.060523         1.462811
 H        -0.812039        -0.113613         1.278261
 H        -0.203998         0.937181        -0.076349
 H        -0.634841        -0.762575        -0.454756
 H         4.040257        -0.963354         0.070965
 H         1.439834        -2.695784        -0.102370
 H         0.966258        -3.046475         2.337401
 H         2.630814        -3.395379         2.172974
 H         2.274474        -1.936759         4.070575
 H         3.621933        -1.715839         2.820194
 H         2.546899         1.085350         1.265885
