19
Iteration:  1228
 C        -0.285522        -0.075556         0.341939
 C         1.212197        -0.547792         0.389632
 O         2.264439        -0.267134        -0.696238
 C         3.131942        -0.932713         0.441608
 C         2.035450        -2.026057         0.642013
 C         1.879357        -2.549870         2.028227
 C         2.502174        -1.665693         3.035784
 O         2.274165        -0.199153         2.876599
 C         2.348510         0.030266         1.421808
 H        -0.808828        -0.630441         1.118909
 H        -0.135799         1.021134         0.428251
 H        -0.767336        -0.256031        -0.642181
 H         4.147880        -1.007367         0.016658
 H         1.817124        -2.724118        -0.153600
 H         0.839027        -2.598740         2.217963
 H         2.021929        -3.650886         2.222000
 H         2.129287        -1.979836         4.065591
 H         3.501749        -1.796148         2.999761
 H         2.684174         1.081541         1.412683
