19
Iteration:   659charge 0 multiplicity 1
 C        -0.128516        -0.156016         0.413434
 C         1.323570        -0.420955         0.532054
 O         2.288338        -0.277898        -0.674801
 C         3.075212        -0.964227         0.423266
 C         1.830548        -1.917081         0.625271
 C         1.889869        -2.598572         2.002606
 C         2.515726        -1.618822         3.017786
 O         2.184078        -0.261747         2.767791
 C         2.405356        -0.004389         1.411935
 H        -0.726827         0.120671         1.301898
 H        -0.210970         0.826895        -0.112532
 H        -0.629008        -1.008473        -0.106573
 H         4.129123        -1.209139         0.140206
 H         1.313888        -2.456167        -0.183825
 H         0.856121        -2.770443         2.267799
 H         2.499850        -3.426911         1.969166
 H         2.060027        -1.861827         3.966367
 H         3.531244        -1.706820         3.129267
 H         2.611849         1.074860         1.207536
