19
Iteration:  2671
 C        -0.180824        -0.264189         0.181624
 C         1.289659        -0.449625         0.499886
 O         2.202764        -0.188334        -0.628685
 C         3.075531        -0.857134         0.393436
 C         1.911123        -1.889717         0.666193
 C         1.768528        -2.544622         1.988132
 C         2.533181        -1.751108         3.022600
 O         2.226236        -0.346966         2.861222
 C         2.506559         0.113119         1.547211
 H        -0.744389        -0.268911         1.076818
 H        -0.333468         0.597997        -0.435576
 H        -0.492138        -1.141165        -0.285372
 H         4.112796        -1.103074         0.267896
 H         1.914027        -2.404577        -0.299418
 H         0.718348        -2.518281         2.184282
 H         2.190987        -3.668119         2.010528
 H         2.401407        -1.924145         4.039247
 H         3.562211        -1.656075         2.817543
 H         2.890106         1.161679         1.504826
