19
Iteration:  4210charge 0 multiplicity 1
 C        -0.227260        -0.152325         0.222261
 C         1.270235        -0.554832         0.476666
 O         2.198528        -0.259866        -0.626430
 C         3.067762        -0.917531         0.479520
 C         1.983505        -1.984810         0.674445
 C         1.873015        -2.564350         2.063244
 C         2.471914        -1.617423         3.008822
 O         2.346757        -0.204324         2.785169
 C         2.370704         0.037425         1.418308
 H        -0.703512         0.043496         1.165817
 H        -0.531734         0.695063        -0.418216
 H        -0.660461        -1.102225        -0.074339
 H         4.150053        -1.100774         0.179638
 H         1.810093        -2.663171        -0.191307
 H         0.801509        -2.621729         2.348962
 H         2.330371        -3.495157         2.036918
 H         2.219543        -1.741042         4.081506
 H         3.578483        -1.831937         3.099746
 H         2.498432         1.081595         1.296992
