19
Iteration:   814
 C        -0.127411        -0.033239         0.303085
 C         1.247635        -0.582120         0.439334
 O         2.187922        -0.276567        -0.656959
 C         3.068265        -0.880459         0.466796
 C         1.979211        -1.942764         0.618832
 C         1.852489        -2.513600         2.073306
 C         2.580148        -1.691055         3.108422
 O         2.308555        -0.320205         2.752950
 C         2.275789         0.013641         1.415242
 H        -0.760331        -0.482148         1.110808
 H        -0.298232         1.081248         0.222710
 H        -0.544920        -0.505171        -0.664234
 H         4.043336        -1.026778         0.073926
 H         2.111854        -2.680880        -0.218213
 H         0.675782        -2.421327         2.312195
 H         1.971723        -3.549898         2.116046
 H         2.089654        -1.884387         4.119692
 H         3.774480        -1.737989         3.219141
 H         2.414725         1.095427         1.255527
