19
Iteration:  2978charge 0 multiplicity 1
 C        -0.220673        -0.283329         0.198098
 C         1.285294        -0.481244         0.493158
 O         2.262608        -0.132477        -0.657548
 C         3.042670        -0.866098         0.408360
 C         1.895879        -1.887777         0.645331
 C         1.844910        -2.487473         1.979554
 C         2.559214        -1.725203         3.056495
 O         2.309940        -0.333553         2.860925
 C         2.369169         0.050308         1.522529
 H        -0.780304        -0.893028         0.993269
 H        -0.567262         0.756237         0.064417
 H        -0.270610        -0.732841        -0.802360
 H         4.122797        -1.071582         0.193673
 H         1.608605        -2.657874        -0.183969
 H         0.808589        -2.664251         2.258482
 H         2.206513        -3.418773         2.128666
 H         2.122621        -1.981224         3.999729
 H         3.684061        -2.029211         3.170582
 H         2.523152         1.115640         1.468210
