19
Iteration:  4350charge 0 multiplicity 1
 C        -0.193407        -0.038809         0.157522
 C         1.258036        -0.499901         0.413301
 O         2.199980        -0.369359        -0.678198
 C         3.045095        -0.935105         0.524402
 C         1.895891        -1.950465         0.768663
 C         1.933902        -2.668051         2.150525
 C         2.631500        -1.605997         2.979000
 O         2.201111        -0.275086         2.850811
 C         2.338199         0.142725         1.383641
 H        -1.022681        -0.503747         0.739426
 H        -0.384521         1.023952         0.508522
 H        -0.366184        -0.189199        -0.926732
 H         4.104517        -1.013380         0.185053
 H         1.721238        -2.475291        -0.178050
 H         0.994130        -3.054461         2.635871
 H         2.799747        -3.523649         1.977861
 H         2.531936        -2.036021         4.020358
 H         3.701322        -1.631947         2.861158
 H         2.518344         1.166843         1.079398
