19
Iteration:  3037
 C        -0.136435        -0.215951         0.209845
 C         1.249061        -0.523762         0.443231
 O         2.263246        -0.218656        -0.612846
 C         3.064734        -0.831788         0.539767
 C         1.915333        -1.893193         0.586096
 C         1.790242        -2.579923         1.973453
 C         2.634457        -1.704744         3.003925
 O         2.310361        -0.274572         2.847832
 C         2.252983         0.050994         1.524028
 H        -0.726962        -0.407103         1.074542
 H        -0.254165         0.850954         0.035442
 H        -0.751555        -0.896530        -0.372928
 H         4.133535        -1.038023         0.454910
 H         1.756385        -2.544252        -0.281964
 H         0.732924        -2.572981         2.056147
 H         2.369752        -3.574067         1.932419
 H         2.214133        -1.917519         4.061594
 H         3.728325        -1.998086         2.846797
 H         2.311512         1.161561         1.258231
