19
Iteration:    54
 C        -0.222691        -0.034071         0.278646
 C         1.281354        -0.522150         0.448108
 O         2.258938        -0.273881        -0.714746
 C         3.069371        -1.001165         0.473197
 C         1.909062        -1.936407         0.729916
 C         1.794047        -2.549513         2.104676
 C         2.589344        -1.691540         3.078124
 O         2.319481        -0.279125         2.761485
 C         2.356448         0.059232         1.340501
 H        -0.982018        -0.703699         0.532256
 H        -0.377501         0.878515         0.831939
 H        -0.456605         0.093608        -0.802529
 H         4.139489        -1.044449         0.286385
 H         1.773961        -2.715984         0.012258
 H         0.829093        -2.503548         2.478086
 H         2.070295        -3.662876         2.170916
 H         2.193963        -1.840088         4.138977
 H         3.657766        -1.917709         3.079251
 H         2.510885         1.157957         1.266381
