19
Iteration:  2870
 C        -0.231029        -0.197124         0.229733
 C         1.196629        -0.500601         0.472528
 O         2.300898        -0.165234        -0.548770
 C         3.099208        -0.902091         0.479615
 C         1.880736        -1.914340         0.647100
 C         1.901229        -2.636162         1.946050
 C         2.513717        -1.708634         2.933686
 O         2.286942        -0.275024         2.865971
 C         2.320909         0.082579         1.443171
 H        -0.682067         0.041245         1.246193
 H        -0.386636         0.766799        -0.327526
 H        -0.699802        -0.934081        -0.437261
 H         4.238934        -1.023219         0.449270
 H         1.908442        -2.530933        -0.318521
 H         0.882595        -3.016297         2.244329
 H         2.668883        -3.553491         2.055530
 H         2.080610        -1.833209         3.951936
 H         3.689651        -1.873822         3.046541
 H         2.647586         1.109703         1.380442
