19
Iteration:  4239charge 0 multiplicity 1
 C        -0.165184        -0.351246         0.356808
 C         1.378578        -0.587487         0.496130
 O         2.263748        -0.191168        -0.694300
 C         3.104006        -0.864538         0.310838
 C         1.943405        -1.955421         0.614596
 C         1.705696        -2.469315         2.076407
 C         2.435113        -1.621922         3.060700
 O         2.341063        -0.199846         2.830851
 C         2.392250         0.026135         1.458643
 H        -0.475302        -0.107368         1.411314
 H        -0.509003         0.307234        -0.443537
 H        -0.608766        -1.336154         0.084395
 H         4.053576        -1.064143        -0.082754
 H         1.602460        -2.602030        -0.189287
 H         0.663821        -2.247870         2.277553
 H         2.014548        -3.586321         1.992748
 H         2.022948        -1.749943         4.088358
 H         3.516782        -1.784500         3.020395
 H         2.457631         1.107181         1.351047
