19
Iteration:   442
 C        -0.282243        -0.239230         0.302655
 C         1.243196        -0.422517         0.579725
 O         2.369305        -0.259727        -0.616149
 C         3.065010        -1.064719         0.370694
 C         1.820060        -1.900312         0.628051
 C         1.784711        -2.519429         1.942687
 C         2.524374        -1.672042         3.015322
 O         2.324631        -0.229790         2.869506
 C         2.437286         0.153781         1.397426
 H        -0.744182         0.120378         1.183438
 H        -0.509519         0.423963        -0.531424
 H        -0.683213        -1.183926        -0.119959
 H         4.188983        -1.220548         0.383050
 H         1.690843        -2.601652        -0.241863
 H         0.779422        -2.714938         2.369581
 H         2.232483        -3.629053         2.044931
 H         2.175826        -1.968978         4.049736
 H         3.761653        -1.821304         2.981306
 H         2.832408         1.197180         1.176531
