19
Iteration:   391charge 0 multiplicity 1
 C        -0.166443        -0.024258         0.257994
 C         1.207071        -0.610517         0.409400
 O         2.236697        -0.328035        -0.704620
 C         3.061312        -0.794996         0.365087
 C         2.018163        -1.963406         0.678976
 C         1.744603        -2.537416         2.070119
 C         2.611108        -1.737522         3.117756
 O         2.398649        -0.285333         2.825077
 C         2.246252         0.016380         1.471802
 H        -0.742476        -0.118026         1.190530
 H        -0.102240         1.048269        -0.063638
 H        -0.739808        -0.435566        -0.615910
 H         4.118744        -0.805198         0.265093
 H         1.946930        -2.698342        -0.154742
 H         0.687813        -2.337748         2.320145
 H         1.804049        -3.549962         2.265166
 H         2.340727        -1.887964         4.185229
 H         3.579269        -1.881414         3.035782
 H         2.216521         1.081296         1.373654
