19
Iteration:  4396
 C        -0.201279        -0.248365         0.190870
 C         1.268545        -0.539810         0.404849
 O         2.227698        -0.225566        -0.633913
 C         3.062856        -0.865051         0.366776
 C         1.914972        -2.027534         0.661453
 C         1.777201        -2.460586         2.155493
 C         2.615319        -1.672502         3.059709
 O         2.323031        -0.210206         2.829562
 C         2.336628         0.048009         1.458686
 H        -0.736053        -0.643866         1.024440
 H        -0.315701         0.818371         0.415699
 H        -0.486167        -0.599156        -0.783868
 H         4.223835        -0.906187         0.202356
 H         1.686422        -2.888655         0.005819
 H         0.662959        -2.446257         2.237704
 H         2.032844        -3.629275         2.090951
 H         2.494219        -1.807603         4.132652
 H         3.604704        -2.019129         2.874924
 H         2.663897         1.077703         1.280497
