19
Iteration:   362
 C        -0.121921        -0.116741         0.288144
 C         1.265852        -0.465314         0.466346
 O         2.237173        -0.282281        -0.619475
 C         3.038586        -0.989644         0.410701
 C         1.840618        -1.915355         0.686371
 C         1.823801        -2.624700         2.021453
 C         2.543256        -1.697615         3.059234
 O         2.299319        -0.175987         2.789908
 C         2.397129         0.060723         1.418333
 H        -0.885627        -0.700302         0.863849
 H        -0.371125         0.942904         0.336171
 H        -0.411866        -0.431106        -0.688036
 H         4.100927        -1.197415         0.277329
 H         1.557698        -2.517717        -0.144783
 H         0.782459        -2.880931         2.312814
 H         2.394412        -3.623594         2.068936
 H         2.303126        -1.899777         4.088299
 H         3.771455        -1.684001         2.943966
 H         2.659655         1.100116         1.194380
