19
Iteration:  1753charge 0 multiplicity 1
 C        -0.174662        -0.174315         0.245099
 C         1.308886        -0.488597         0.490882
 O         2.199781        -0.191874        -0.613400
 C         3.096371        -0.898809         0.477844
 C         1.851602        -1.945800         0.637255
 C         1.824670        -2.597846         2.044115
 C         2.551140        -1.633094         3.008200
 O         2.273612        -0.309563         2.776332
 C         2.371279         0.047340         1.449154
 H        -0.788600        -0.452217         1.181004
 H        -0.178719         0.931956        -0.075471
 H        -0.426685        -0.760372        -0.702283
 H         4.143503        -1.015142         0.348267
 H         1.647126        -2.721801        -0.150724
 H         0.800512        -2.740586         2.359796
 H         2.424372        -3.526121         2.019996
 H         2.306891        -1.863156         4.156131
 H         3.730131        -1.834201         2.820355
 H         2.744102         1.089565         1.391457
