19
Iteration:  2409charge 0 multiplicity 1
 C        -0.162891        -0.015050         0.301196
 C         1.248635        -0.487932         0.398336
 O         2.230759        -0.263243        -0.615280
 C         3.062275        -0.858615         0.460918
 C         2.013608        -1.978647         0.638096
 C         1.943264        -2.647013         2.020763
 C         2.501620        -1.675837         3.012635
 O         2.251831        -0.319714         2.831065
 C         2.292933         0.046733         1.395791
 H        -0.792242        -0.416644         1.131291
 H        -0.262298         1.111185         0.360738
 H        -0.678256        -0.353692        -0.691833
 H         4.173925        -0.963875         0.412651
 H         1.680974        -2.748670        -0.136987
 H         0.801539        -2.765773         2.356949
 H         2.337415        -3.700792         2.167530
 H         2.109758        -1.946649         4.036423
 H         3.561781        -1.895806         3.069937
 H         2.488037         1.191803         1.290192
