19
Iteration:  4235charge 0 multiplicity 1
 C        -0.134491        -0.382480         0.351645
 C         1.339674        -0.605254         0.514544
 O         2.263527        -0.175724        -0.679783
 C         3.084882        -0.886272         0.341408
 C         1.957657        -1.956601         0.605727
 C         1.701003        -2.476099         2.047339
 C         2.462982        -1.607921         3.065655
 O         2.323757        -0.187502         2.812659
 C         2.398940         0.010213         1.456723
 H        -0.602617         0.076308         1.319480
 H        -0.346777         0.467209        -0.389050
 H        -0.701637        -1.305201         0.047813
 H         4.070853        -1.011544        -0.196699
 H         1.495463        -2.554075        -0.212201
 H         0.616974        -2.330310         2.301734
 H         2.045235        -3.512978         1.984138
 H         2.170195        -1.618573         4.101408
 H         3.530448        -1.890177         3.159615
 H         2.538789         1.135007         1.346058
