19
Iteration:  3686
 C        -0.231052        -0.322759         0.325853
 C         1.248348        -0.549801         0.380334
 O         2.254183        -0.182181        -0.703995
 C         3.129542        -0.829928         0.396839
 C         2.042345        -1.929246         0.584720
 C         1.730856        -2.448841         2.024289
 C         2.438065        -1.665900         3.162383
 O         2.396472        -0.293125         2.864917
 C         2.379115         0.040227         1.434892
 H        -0.814451        -0.961706         1.029125
 H        -0.513336         0.658103         0.782367
 H        -0.707349        -0.502591        -0.659334
 H         4.191161        -0.949598        -0.051555
 H         1.907496        -2.694600        -0.212654
 H         0.588794        -2.450760         2.229497
 H         1.935089        -3.603661         2.005660
 H         1.891025        -1.781379         4.140866
 H         3.525023        -1.900103         3.176965
 H         2.682506         1.059681         1.454749
