19
Iteration:  3438
 C        -0.146042        -0.056631         0.305868
 C         1.306744        -0.582233         0.434489
 O         2.214999        -0.244059        -0.618579
 C         3.027711        -0.934762         0.497618
 C         2.010838        -1.974782         0.601020
 C         1.917436        -2.617046         2.000859
 C         2.524432        -1.577281         2.972295
 O         2.119815        -0.272232         2.822644
 C         2.350818         0.011946         1.457029
 H        -0.804824        -0.512083         1.041274
 H        -0.100119         1.010311         0.538197
 H        -0.717420        -0.236194        -0.591350
 H         4.074911        -1.148456         0.319811
 H         1.965041        -2.618854        -0.306132
 H         0.993193        -2.864999         2.378838
 H         2.719810        -3.447030         1.982572
 H         2.381561        -1.833897         3.973421
 H         3.641254        -1.613187         2.963113
 H         2.510772         1.080812         1.389327
