19
Iteration:  4307
 C        -0.130032        -0.141087         0.268601
 C         1.235762        -0.609970         0.406010
 O         2.150712        -0.227161        -0.691207
 C         3.101321        -0.940343         0.368444
 C         1.924942        -1.966622         0.646938
 C         1.914692        -2.567499         2.041741
 C         2.510157        -1.599776         3.115778
 O         2.220694        -0.193934         2.850553
 C         2.421745        -0.003326         1.433020
 H        -0.711360        -0.334243         1.155634
 H        -0.219834         0.947391         0.175627
 H        -0.694245        -0.532989        -0.569283
 H         4.155101        -1.318517         0.286142
 H         1.926860        -2.815910        -0.054063
 H         0.852947        -2.601028         2.306010
 H         2.546419        -3.514486         2.221963
 H         2.181531        -1.738424         4.202205
 H         3.610332        -1.677135         3.099374
 H         2.594661         1.056460         1.440005
