19
Iteration:  4849charge 0 multiplicity 1
 C        -0.082445        -0.070756         0.389663
 C         1.304002        -0.572899         0.510262
 O         2.178683        -0.265341        -0.687238
 C         3.091806        -0.914288         0.337573
 C         2.018139        -1.991641         0.545817
 C         1.950440        -2.612423         2.002793
 C         2.442107        -1.593219         3.131106
 O         2.204237        -0.269373         2.832064
 C         2.258550         0.039999         1.427930
 H        -0.841947        -0.716319         0.792755
 H        -0.122241         0.941614         0.878613
 H        -0.319341         0.134999        -0.656275
 H         4.170005        -0.989191         0.155166
 H         1.900900        -2.601017        -0.312159
 H         0.929188        -2.731514         2.222870
 H         2.482345        -3.578083         1.984394
 H         1.971334        -1.898327         4.107425
 H         3.449032        -1.762015         3.270514
 H         2.392572         1.123246         1.280861
