19
Iteration:  1421charge 0 multiplicity 1
 C        -0.093778        -0.179740         0.307663
 C         1.275320        -0.626689         0.375027
 O         2.189762        -0.322250        -0.702476
 C         3.034391        -0.747031         0.392542
 C         2.047610        -1.944490         0.678330
 C         1.709770        -2.545188         2.049649
 C         2.465075        -1.692940         3.117896
 O         2.378644        -0.268516         2.845345
 C         2.338998         0.090426         1.471872
 H        -0.771197        -0.375236         1.148383
 H        -0.140812         0.900268         0.538984
 H        -0.619860        -0.188689        -0.708279
 H         4.075251        -0.905543        -0.082795
 H         2.209381        -2.718489        -0.168384
 H         0.606431        -2.604399         2.066259
 H         2.058360        -3.537679         2.110987
 H         2.190980        -1.827895         4.129305
 H         3.635871        -1.908178         2.934855
 H         2.268502         1.149901         1.215922
