19
Iteration:   799
 C        -0.146320        -0.131122         0.241576
 C         1.279164        -0.640554         0.444501
 O         2.167742        -0.316514        -0.695189
 C         3.096850        -0.785900         0.381306
 C         1.980402        -1.951461         0.646987
 C         1.725752        -2.484267         2.061901
 C         2.571176        -1.697560         3.037232
 O         2.366955        -0.284068         2.888890
 C         2.295749         0.043680         1.450375
 H        -0.885387        -0.331866         0.990105
 H         0.088900         0.867516         0.507252
 H        -0.405077        -0.235744        -0.755831
 H         4.233143        -0.768349         0.392574
 H         1.679986        -2.719423        -0.039762
 H         0.658985        -2.360483         2.328676
 H         2.162863        -3.523315         2.114485
 H         2.338095        -1.871934         4.058196
 H         3.574678        -2.056449         2.882552
 H         2.299270         1.158158         1.438492
