19
Iteration:   692
 C        -0.139321         0.006966         0.425760
 C         1.253458        -0.591634         0.415202
 O         2.252993        -0.301986        -0.738780
 C         3.093539        -0.822973         0.414032
 C         2.033015        -1.971361         0.661606
 C         1.863595        -2.600483         2.047939
 C         2.502918        -1.684532         3.083401
 O         2.256693        -0.273942         2.792414
 C         2.258620        -0.015346         1.395244
 H        -0.336378         0.088984         1.506777
 H         0.047179         0.914109        -0.187428
 H        -0.997533        -0.464696        -0.145049
 H         4.154371        -0.884431         0.100926
 H         1.774995        -2.615070        -0.182477
 H         0.761836        -2.706092         2.169676
 H         2.126801        -3.586040         2.217856
 H         2.084090        -1.849302         4.070432
 H         3.523579        -1.838297         3.100325
 H         2.252195         1.091103         1.352404
