19
Iteration:  1609
 C        -0.152458        -0.196298         0.265094
 C         1.290743        -0.639141         0.441936
 O         2.144564        -0.228683        -0.611013
 C         3.075737        -0.836474         0.476257
 C         2.033703        -1.976104         0.584294
 C         1.741406        -2.494472         1.989302
 C         2.486489        -1.641384         2.994764
 O         2.443665        -0.265613         2.826976
 C         2.310743         0.043764         1.491025
 H        -0.741008        -0.620106         1.169636
 H        -0.277376         0.925217         0.183565
 H        -0.590499        -0.516207        -0.715758
 H         4.169023        -0.942342         0.373951
 H         1.986978        -2.793396        -0.213129
 H         0.739997        -2.360723         2.353980
 H         1.896049        -3.481805         2.308457
 H         1.965813        -1.860300         3.971729
 H         3.506590        -1.884475         3.077516
 H         2.435698         1.112461         1.306134
