19
Iteration:  1663
 C        -0.165114        -0.275851         0.310518
 C         1.315556        -0.418722         0.450454
 O         2.267253        -0.242811        -0.636779
 C         3.049792        -0.962813         0.397334
 C         1.875887        -1.816811         0.625296
 C         1.838897        -2.535891         1.938265
 C         2.542988        -1.685785         3.135278
 O         2.176723        -0.279093         2.819996
 C         2.462516         0.072015         1.429234
 H        -0.681128        -0.373274         1.356631
 H        -0.572665         0.752947         0.063267
 H        -0.696809        -1.003477        -0.367417
 H         4.106416        -1.231795         0.152252
 H         1.681830        -2.611836        -0.184035
 H         0.893865        -2.641091         2.419549
 H         2.304386        -3.473163         1.811234
 H         2.183387        -2.044048         4.150635
 H         3.690709        -1.809847         3.113443
 H         2.872416         1.066873         1.299474
