19
Iteration:  2216
 C        -0.048553        -0.050250         0.301488
 C         1.300170        -0.587894         0.383446
 O         2.220978        -0.226371        -0.666243
 C         3.045105        -0.798827         0.396953
 C         1.968953        -2.007041         0.559551
 C         1.853126        -2.532356         2.103957
 C         2.508595        -1.665180         3.082754
 O         2.255112        -0.355211         2.855938
 C         2.250983        -0.005811         1.410876
 H        -0.639856        -0.473965         1.156976
 H        -0.141420         1.043715         0.542236
 H        -0.692412        -0.251933        -0.567765
 H         4.202097        -0.788301         0.237176
 H         1.911600        -2.760274        -0.203147
 H         0.844925        -2.688189         2.371009
 H         2.100395        -3.677580         2.019028
 H         2.203401        -1.790031         4.145142
 H         3.657192        -1.861000         3.127692
 H         2.328900         1.106187         1.448146
