19
Iteration:   978
 C        -0.239729        -0.153779         0.217136
 C         1.221528        -0.499005         0.489300
 O         2.240063        -0.266976        -0.666131
 C         3.068846        -0.949873         0.380418
 C         1.956797        -1.926223         0.689404
 C         1.822423        -2.478609         2.067387
 C         2.561030        -1.706691         2.964601
 O         2.302414        -0.282085         2.883583
 C         2.429284         0.062965         1.492741
 H        -0.962780        -0.717842         0.764380
 H        -0.456332         0.916890         0.413571
 H        -0.351593        -0.378795        -0.846099
 H         4.093107        -1.170092         0.134460
 H         1.720237        -2.657800        -0.097463
 H         0.678782        -2.477972         2.395607
 H         2.270959        -3.449421         2.215136
 H         2.192140        -2.012714         4.008236
 H         3.756164        -1.823354         2.773599
 H         2.473880         1.159471         1.336129
