19
Iteration:  4723
 C        -0.215198        -0.088796         0.215356
 C         1.205283        -0.465262         0.399533
 O         2.277789        -0.211315        -0.635350
 C         2.974001        -0.921245         0.413382
 C         1.905304        -1.958261         0.668810
 C         1.978456        -2.670090         2.031127
 C         2.615439        -1.675425         3.096194
 O         2.235546        -0.276914         2.895599
 C         2.347140         0.062311         1.404008
 H        -0.771757         0.237199         1.147350
 H        -0.253037         0.812436        -0.455198
 H        -0.712318        -0.984233        -0.278288
 H         4.041474        -0.967854         0.196947
 H         1.694418        -2.476869        -0.333098
 H         0.940401        -3.022231         2.375774
 H         2.533486        -3.596200         2.210914
 H         2.214918        -2.062012         4.040362
 H         3.677710        -1.836743         3.186245
 H         2.628078         1.100377         1.192032
