19
Iteration:   163
 C        -0.165976        -0.087707         0.360111
 C         1.275832        -0.554246         0.413498
 O         2.204724        -0.269941        -0.627792
 C         3.110806        -0.910548         0.443578
 C         1.962776        -1.977038         0.652886
 C         1.750772        -2.548883         2.047674
 C         2.521835        -1.672232         3.027984
 O         2.291494        -0.264478         2.759651
 C         2.379778         0.038203         1.436429
 H        -0.683070        -0.126939         1.286052
 H        -0.140124         0.949022        -0.058569
 H        -0.645541        -0.652877        -0.481463
 H         4.144169        -1.001747         0.134437
 H         1.718648        -2.510531        -0.233464
 H         0.670087        -2.581643         2.391586
 H         2.281349        -3.586217         2.124363
 H         2.216051        -1.763458         4.109618
 H         3.659922        -1.891342         2.943863
 H         2.740933         1.051365         1.272498
