19
Iteration:  2867
 C        -0.227938        -0.197256         0.224879
 C         1.198065        -0.489073         0.462357
 O         2.299674        -0.158727        -0.567774
 C         3.080775        -0.900649         0.484216
 C         1.898891        -1.932253         0.637474
 C         1.909755        -2.639019         1.958451
 C         2.520550        -1.709667         2.962880
 O         2.301761        -0.265894         2.858342
 C         2.321014         0.070407         1.473866
 H        -0.706384         0.096738         1.199141
 H        -0.535311         0.694958        -0.347653
 H        -0.740842        -0.896826        -0.524808
 H         4.166937        -1.024140         0.437329
 H         1.878646        -2.558626        -0.332210
 H         0.874143        -3.004610         2.145355
 H         2.562557        -3.500117         2.057193
 H         2.171667        -1.913273         3.993924
 H         3.553301        -1.896254         2.997137
 H         2.672775         1.158473         1.465773
