19
Iteration:  2169charge 0 multiplicity 1
 C        -0.137977        -0.293586         0.297521
 C         1.282830        -0.426627         0.473116
 O         2.315013        -0.188030        -0.598041
 C         3.038801        -0.933243         0.482771
 C         1.854946        -1.870950         0.615798
 C         1.708394        -2.590426         1.962456
 C         2.505165        -1.698215         3.005758
 O         2.357021        -0.225856         2.793476
 C         2.384028         0.059817         1.461030
 H        -0.577408        -0.717728         1.154042
 H        -0.582594         0.653806         0.195973
 H        -0.468344        -0.894353        -0.552928
 H         4.077366        -1.045217         0.168230
 H         1.514896        -2.472705        -0.243960
 H         0.705355        -2.957409         2.259173
 H         2.258085        -3.682963         2.006640
 H         2.299158        -1.772580         4.107002
 H         3.633424        -1.783392         2.914671
 H         2.690557         1.130840         1.468427
