19
Iteration:  1495charge 0 multiplicity 1
 C        -0.155959        -0.152562         0.310749
 C         1.267513        -0.553010         0.476989
 O         2.219092        -0.280172        -0.629483
 C         3.070204        -0.857478         0.440381
 C         1.969546        -1.935601         0.640948
 C         1.800928        -2.534617         2.054812
 C         2.552131        -1.676535         3.057615
 O         2.268172        -0.303352         2.756992
 C         2.367278         0.089917         1.427396
 H        -0.713248         0.091059         1.203264
 H        -0.332873         0.767209        -0.268448
 H        -0.605320        -0.943013        -0.340294
 H         4.123450        -1.085366         0.199661
 H         1.921400        -2.612018        -0.233543
 H         0.739913        -2.632448         2.224992
 H         2.227862        -3.533360         1.979623
 H         2.149061        -1.875195         4.022762
 H         3.589038        -1.787138         3.117893
 H         2.578473         1.172370         1.333548
