19
Iteration:  3460
 C        -0.085968        -0.143103         0.408157
 C         1.393808        -0.484527         0.528584
 O         2.257384        -0.310282        -0.710445
 C         3.104488        -0.847918         0.307998
 C         1.957295        -1.904537         0.639785
 C         1.913189        -2.623112         1.980049
 C         2.445938        -1.676281         3.119991
 O         2.075402        -0.283179         2.826553
 C         2.329651         0.081596         1.414959
 H        -0.695211        -0.444347         1.248552
 H        -0.231654         0.934903         0.312532
 H        -0.592763        -0.696061        -0.372898
 H         4.108338        -0.887507        -0.100653
 H         1.664167        -2.622101        -0.159603
 H         0.920304        -2.750982         2.130342
 H         2.549374        -3.564907         1.839975
 H         2.171629        -1.930172         4.101794
 H         3.539218        -1.747891         3.175081
 H         2.470977         1.166676         1.356928
