19
Iteration:  1838charge 0 multiplicity 1
 C        -0.134608        -0.129509         0.314275
 C         1.241933        -0.597232         0.429546
 O         2.225432        -0.239544        -0.676337
 C         3.062491        -0.802866         0.357051
 C         2.002620        -1.958518         0.610842
 C         1.817805        -2.592161         1.999363
 C         2.418315        -1.661469         3.069431
 O         2.350987        -0.244998         2.877950
 C         2.349779         0.015209         1.495970
 H        -0.748548        -0.410969         1.162556
 H        -0.262465         0.936920         0.185252
 H        -0.608214        -0.528746        -0.521639
 H         4.107276        -0.874047         0.165140
 H         2.038316        -2.790502        -0.138510
 H         0.741212        -2.822339         2.286400
 H         2.242583        -3.581633         2.241708
 H         2.085502        -1.843904         4.112068
 H         3.458776        -1.836651         2.948969
 H         2.558286         1.013743         1.199061
