19
Iteration:  2850
 C        -0.234457        -0.185250         0.156031
 C         1.258760        -0.494959         0.426332
 O         2.236082        -0.161645        -0.639541
 C         3.036440        -0.806657         0.411203
 C         1.963903        -1.905890         0.598714
 C         1.818197        -2.577016         1.983054
 C         2.572962        -1.752181         3.124274
 O         2.319431        -0.350274         2.932799
 C         2.314532         0.035525         1.495636
 H        -0.689907        -0.132654         1.146417
 H        -0.144803         0.750732        -0.405402
 H        -0.516231        -1.059402        -0.356977
 H         4.137844        -0.912452         0.157309
 H         1.877434        -2.564050        -0.274395
 H         0.793771        -2.685937         2.349365
 H         2.337670        -3.632649         1.930729
 H         2.253084        -1.798524         4.194419
 H         3.788956        -1.816337         3.058282
 H         2.440386         1.069663         1.354556
