19
Iteration:   111
 C        -0.166468        -0.168444         0.268443
 C         1.273382        -0.472606         0.442717
 O         2.263296        -0.220245        -0.648858
 C         3.058427        -0.963157         0.394182
 C         1.840655        -1.934453         0.676345
 C         1.767656        -2.528881         2.089104
 C         2.475334        -1.660113         3.115505
 O         2.347622        -0.272235         2.751689
 C         2.474734         0.018502         1.380100
 H        -0.543555        -1.018245         0.883006
 H        -0.547173         0.673450         0.865941
 H        -0.576011        -0.021715        -0.680050
 H         4.100416        -1.157760         0.163269
 H         1.677682        -2.588913        -0.175398
 H         0.796345        -2.528147         2.419363
 H         2.181116        -3.552225         2.203514
 H         2.143353        -1.735512         4.135551
 H         3.553729        -1.947933         3.053371
 H         2.691665         1.057630         1.268974
