19
Iteration:  2015charge 0 multiplicity 1
 C        -0.151847        -0.081678         0.340328
 C         1.242369        -0.610732         0.423375
 O         2.266671        -0.280983        -0.641893
 C         3.129933        -0.830951         0.401761
 C         2.008600        -1.935844         0.622769
 C         1.741756        -2.556888         1.962548
 C         2.499363        -1.703628         3.076583
 O         2.354129        -0.278965         2.805720
 C         2.228746         0.037681         1.455983
 H        -0.796088        -0.388785         1.122299
 H        -0.272110         0.965741         0.450844
 H        -0.705611        -0.521001        -0.449221
 H         4.193314        -0.765466         0.341518
 H         1.946836        -2.701322        -0.205854
 H         0.781714        -2.478372         2.199469
 H         2.338503        -3.514713         1.992812
 H         2.172063        -1.793125         4.196558
 H         3.580255        -1.997883         3.210073
 H         2.377350         1.123427         1.300470
