19
Iteration:  4342charge 0 multiplicity 1
 C        -0.211549        -0.025619         0.156073
 C         1.239958        -0.475661         0.473352
 O         2.219397        -0.369221        -0.712189
 C         3.021361        -0.894496         0.485143
 C         1.872289        -1.926375         0.753397
 C         1.992695        -2.696084         2.146317
 C         2.618018        -1.608870         3.023888
 O         2.187089        -0.240880         2.830983
 C         2.351056         0.078514         1.396674
 H        -0.781196        -0.666819         0.764338
 H        -0.193648         1.022981         0.401574
 H        -0.402285        -0.192670        -0.873921
 H         4.089325        -1.308061         0.236976
 H         1.810617        -2.641741        -0.096648
 H         1.025727        -3.194079         2.350868
 H         2.591860        -3.617150         2.003671
 H         2.497018        -1.630366         4.122629
 H         3.712761        -1.796442         2.778538
 H         2.464558         1.158747         1.380485
