19
Iteration:  2430charge 0 multiplicity 1
 C        -0.124541        -0.052470         0.287672
 C         1.248024        -0.582232         0.419886
 O         2.217260        -0.282707        -0.749986
 C         3.079404        -0.694223         0.369997
 C         2.005781        -1.862414         0.682309
 C         1.796596        -2.596500         2.062343
 C         2.596957        -1.791221         3.160638
 O         2.235085        -0.386572         2.822429
 C         2.274905         0.060383         1.470070
 H        -0.700217        -0.149448         1.252983
 H         0.092167         1.055837         0.101766
 H        -0.570422        -0.426494        -0.726053
 H         4.125362        -0.894374         0.095938
 H         2.160862        -2.650794        -0.174937
 H         0.743429        -2.796745         2.384530
 H         2.117744        -3.723124         1.957314
 H         2.337166        -1.752949         4.272919
 H         3.602431        -2.168092         3.072735
 H         2.258168         1.223481         1.351755
