19
Iteration:  2909charge 0 multiplicity 1
 C        -0.168454        -0.098037         0.360621
 C         1.323357        -0.509476         0.387953
 O         2.223736        -0.206808        -0.718053
 C         3.115834        -0.831623         0.354606
 C         2.113777        -1.944491         0.620825
 C         1.889132        -2.601858         2.061142
 C         2.487010        -1.683095         3.076269
 O         2.079201        -0.360001         2.896256
 C         2.359023         0.037330         1.450091
 H        -0.502478        -0.233249         1.420421
 H        -0.440476         0.987987         0.180329
 H        -0.864860        -0.525883        -0.498813
 H         4.102252        -0.903480        -0.044250
 H         1.875770        -2.625801        -0.196914
 H         0.850570        -2.794474         2.390658
 H         2.276448        -3.577897         1.937960
 H         2.233192        -2.256755         3.974747
 H         3.617020        -1.817332         3.088367
 H         2.500543         1.179042         1.342706
