19
Iteration:  3223charge 0 multiplicity 1
 C        -0.187880        -0.138393         0.160087
 C         1.270883        -0.570455         0.526518
 O         2.144575        -0.214206        -0.594586
 C         3.121266        -0.831689         0.395566
 C         1.995931        -1.922981         0.629486
 C         1.845512        -2.565814         2.041480
 C         2.617245        -1.738323         3.017714
 O         2.246132        -0.336748         2.834658
 C         2.303092         0.075892         1.515179
 H        -0.921075        -0.416719         0.927765
 H        -0.103361         0.981006         0.128975
 H        -0.465078        -0.655823        -0.832388
 H         4.169599        -0.893966         0.156051
 H         1.908106        -2.555232        -0.261743
 H         0.730247        -2.526702         2.272287
 H         2.296359        -3.524192         1.941591
 H         2.232178        -2.028196         4.101859
 H         3.788703        -1.698845         2.994924
 H         2.449760         1.220241         1.487399
