19
Iteration:  1829
 C        -0.185829        -0.135601         0.297843
 C         1.324892        -0.618533         0.517417
 O         2.189886        -0.247553        -0.658060
 C         3.103316        -0.771872         0.381414
 C         2.063923        -2.023579         0.565647
 C         1.738690        -2.575955         2.051906
 C         2.455117        -1.666954         3.075166
 O         2.352207        -0.243387         2.849275
 C         2.330142         0.047240         1.402565
 H        -0.781927        -0.435408         1.183529
 H         0.010186         0.951759         0.300321
 H        -0.542039        -0.630012        -0.593678
 H         4.138205        -0.709574         0.158075
 H         1.761055        -2.598003        -0.362235
 H         0.645113        -2.554844         2.142403
 H         2.201592        -3.498447         2.129641
 H         2.070222        -2.015447         4.120697
 H         3.433108        -2.073895         3.088284
 H         2.365107         1.150246         1.454565
