19
Iteration:  4974
 C        -0.229970        -0.283113         0.174977
 C         1.272346        -0.491195         0.447815
 O         2.218051        -0.198593        -0.605775
 C         3.103190        -0.798388         0.378987
 C         1.977826        -1.910842         0.678483
 C         1.741680        -2.577954         1.974554
 C         2.542662        -1.746760         3.035329
 O         2.422187        -0.272989         2.933270
 C         2.324181         0.150072         1.480620
 H        -0.805448         0.463507         0.779124
 H        -0.330136         0.040994        -0.830690
 H        -0.642424        -1.297271         0.261641
 H         4.199504        -0.782186         0.180709
 H         1.921047        -2.708609        -0.168400
 H         0.515092        -2.610108         2.033152
 H         1.792195        -3.658020         2.232810
 H         2.180250        -2.348467         3.989515
 H         3.545427        -2.082818         2.901554
 H         2.539012         1.224473         1.523118
