19
Iteration:  1424charge 0 multiplicity 1
 C        -0.138432        -0.197340         0.313075
 C         1.272147        -0.621602         0.392108
 O         2.214218        -0.288699        -0.711662
 C         3.061384        -0.750089         0.390592
 C         2.037137        -1.970989         0.689981
 C         1.699553        -2.539994         2.036215
 C         2.479624        -1.710576         3.112894
 O         2.375465        -0.269393         2.833368
 C         2.350707         0.100990         1.458211
 H        -0.750865        -0.331341         1.228943
 H        -0.165661         0.906956         0.524166
 H        -0.498776        -0.285543        -0.718889
 H         4.053658        -0.935769        -0.117604
 H         2.171594        -2.672166        -0.155872
 H         0.546976        -2.549475         2.187146
 H         2.138852        -3.623847         2.188961
 H         2.170263        -1.741683         4.194023
 H         3.465111        -1.954169         3.006337
 H         2.225912         1.176147         1.182795
