19
Iteration:  3608
 C        -0.122780        -0.014744         0.230238
 C         1.249607        -0.577634         0.442451
 O         2.246488        -0.241553        -0.650431
 C         3.034047        -0.878571         0.428343
 C         1.928565        -1.928777         0.663013
 C         1.937067        -2.604992         2.130776
 C         2.638133        -1.661810         3.072287
 O         2.103522        -0.332566         2.777458
 C         2.312825        -0.003011         1.426420
 H        -0.863295        -0.466497         0.923736
 H        -0.154598         1.060813         0.251371
 H        -0.433343        -0.122287        -0.783719
 H         4.103818        -0.885793         0.170211
 H         1.794281        -2.687200        -0.076955
 H         1.006881        -2.930722         2.501815
 H         2.465749        -3.560897         1.933693
 H         2.574025        -1.932646         4.193280
 H         3.704553        -1.551187         2.843750
 H         2.397349         1.080892         1.472982
