19
Iteration:  1125
 C        -0.198547        -0.195979         0.223703
 C         1.273896        -0.536795         0.481968
 O         2.172639        -0.193586        -0.691581
 C         3.109218        -0.856248         0.431444
 C         2.015902        -1.985237         0.687967
 C         1.742557        -2.551817         2.077769
 C         2.545227        -1.669430         3.013675
 O         2.354857        -0.283191         2.831232
 C         2.357448         0.025015         1.475768
 H        -0.888486        -0.155983         1.063753
 H        -0.250008         0.830729        -0.038104
 H        -0.501325        -0.763843        -0.630607
 H         4.211599        -0.900550         0.250801
 H         1.805610        -2.701808        -0.131846
 H         0.645083        -2.362150         2.180680
 H         1.984575        -3.638216         2.183686
 H         2.301437        -1.808163         4.020222
 H         3.633400        -1.941708         2.905438
 H         2.406337         1.103984         1.440461
