19
Iteration:   766
 C        -0.237729        -0.274782         0.182978
 C         1.265736        -0.447058         0.503224
 O         2.247294        -0.195836        -0.578558
 C         3.088392        -0.972176         0.487504
 C         1.827891        -1.874106         0.650505
 C         1.770495        -2.471474         2.072873
 C         2.601115        -1.681751         2.990643
 O         2.382484        -0.305802         2.776912
 C         2.390795         0.050422         1.428087
 H        -0.835053        -0.909130         0.832528
 H        -0.482171         0.770018         0.239264
 H        -0.456653        -0.416860        -0.853489
 H         4.226133        -1.147740         0.508170
 H         1.483903        -2.629733        -0.046062
 H         0.677028        -2.578308         2.400647
 H         1.988261        -3.605498         1.992246
 H         2.275967        -1.811565         3.999407
 H         3.750756        -1.903720         2.948896
 H         2.752912         1.102987         1.202392
