19
Iteration:  3092
 C        -0.063860        -0.102033         0.417074
 C         1.313221        -0.512333         0.443336
 O         2.227574        -0.286851        -0.667887
 C         3.040966        -0.854442         0.457125
 C         1.971566        -1.921194         0.587599
 C         1.973589        -2.615998         1.956391
 C         2.483125        -1.679484         2.985920
 O         2.102647        -0.280040         2.884585
 C         2.305848         0.042470         1.397881
 H        -0.591920        -0.268770         1.352088
 H        -0.040457         0.973057         0.189380
 H        -0.714011        -0.546851        -0.386730
 H         4.071018        -0.930108         0.155187
 H         1.862818        -2.518588        -0.322025
 H         1.022992        -3.155482         1.989413
 H         2.680603        -3.512418         1.997477
 H         1.932166        -1.911278         4.028442
 H         3.621615        -1.730640         3.445648
 H         2.504788         1.174746         1.323887
