19
Iteration:  1974
 C        -0.242693        -0.303924         0.239250
 C         1.318564        -0.400910         0.551469
 O         2.246704        -0.201743        -0.601437
 C         3.134762        -0.926720         0.314147
 C         1.858574        -1.847214         0.668360
 C         1.765689        -2.523931         1.988794
 C         2.491493        -1.731441         3.055879
 O         2.325713        -0.247683         2.879022
 C         2.476339         0.013285         1.450164
 H        -0.797358        -0.719481         1.118351
 H        -0.580280         0.672640        -0.157141
 H        -0.288044        -1.021091        -0.673883
 H         4.183181        -1.150724        -0.042407
 H         1.448540        -2.433236        -0.117964
 H         0.529168        -2.692031         2.231363
 H         2.200819        -3.505374         1.863445
 H         2.177420        -1.867567         4.092675
 H         3.590017        -1.753126         2.968776
 H         2.683795         1.106646         1.252145
