19
Iteration:  3466
 C        -0.093701        -0.167700         0.421153
 C         1.327893        -0.490196         0.493527
 O         2.274429        -0.283142        -0.712997
 C         3.065934        -0.852993         0.274725
 C         2.022504        -1.879771         0.666609
 C         1.900516        -2.602634         1.991052
 C         2.415048        -1.667303         3.108561
 O         2.118118        -0.335208         2.794850
 C         2.370670         0.094332         1.432425
 H        -0.556287        -0.428534         1.435267
 H        -0.314740         0.895458         0.151061
 H        -0.604259        -0.742009        -0.381618
 H         4.158305        -1.031355         0.028590
 H         1.747311        -2.424488        -0.234842
 H         0.764330        -2.913115         2.328302
 H         2.417189        -3.519328         1.908188
 H         2.044000        -1.786051         4.212601
 H         3.528081        -1.775239         3.311449
 H         2.362118         1.200601         1.453496
