19
Iteration:  4700
 C        -0.085937        -0.034730         0.340721
 C         1.218979        -0.571603         0.499018
 O         2.222917        -0.250337        -0.606073
 C         3.069740        -0.945960         0.380452
 C         1.941546        -1.912402         0.653252
 C         2.006436        -2.578095         1.979573
 C         2.510965        -1.597863         3.044425
 O         2.113709        -0.303524         2.761631
 C         2.336403        -0.022785         1.460724
 H        -0.513840         0.391162         1.258365
 H        -0.055402         0.859170        -0.336057
 H        -0.780278        -0.816762        -0.052717
 H         4.071646        -1.036293         0.093515
 H         1.836339        -2.707410        -0.150832
 H         1.045719        -3.207044         2.267437
 H         2.731154        -3.366789         2.028919
 H         2.218076        -1.734397         4.102754
 H         3.571629        -1.790405         3.008894
 H         2.436573         1.018982         1.178388
