19
Iteration:  2187
 C        -0.225693        -0.226768         0.317736
 C         1.315741        -0.476338         0.547315
 O         2.292364        -0.245919        -0.634338
 C         3.115730        -0.878627         0.415966
 C         1.877100        -1.900916         0.638975
 C         1.819973        -2.573116         2.031641
 C         2.468683        -1.679082         2.963625
 O         2.246520        -0.294597         2.862683
 C         2.478587         0.104687         1.404302
 H        -0.868949        -0.762421         1.086488
 H        -0.584436         0.835740         0.186225
 H        -0.579850        -0.562080        -0.683515
 H         4.135733        -1.144519         0.234841
 H         1.751612        -2.580079        -0.250178
 H         0.679661        -2.674457         2.284374
 H         2.252677        -3.475305         1.829720
 H         2.085485        -1.911916         3.953692
 H         3.504984        -1.863862         2.735386
 H         2.737879         1.140748         1.326293
