19
Iteration:  1486charge 0 multiplicity 1
 C        -0.159163        -0.213953         0.287979
 C         1.291030        -0.462200         0.526948
 O         2.286686        -0.299200        -0.658519
 C         3.036251        -0.877532         0.359667
 C         1.922164        -1.897531         0.641691
 C         1.808201        -2.575641         1.996609
 C         2.493058        -1.632070         3.072257
 O         2.290566        -0.232932         2.845123
 C         2.377159         0.035532         1.444605
 H        -0.722788        -0.231895         1.260584
 H        -0.336023         0.708373        -0.331944
 H        -0.732745        -1.094698        -0.162858
 H         4.146464        -1.000736         0.105666
 H         1.652087        -2.571361        -0.260514
 H         0.753356        -2.761966         2.161449
 H         2.234015        -3.536246         2.049506
 H         2.251851        -1.883774         4.094150
 H         3.606281        -1.950736         2.817849
 H         2.623471         1.111170         1.510513
