19
Iteration:   990
 C        -0.157519        -0.084419         0.249222
 C         1.246526        -0.651375         0.491366
 O         2.258113        -0.309016        -0.666993
 C         3.046853        -0.807624         0.398885
 C         1.938101        -1.958568         0.642767
 C         1.771683        -2.581327         2.029176
 C         2.579445        -1.633134         3.034813
 O         2.340668        -0.222462         2.864775
 C         2.287614         0.004483         1.469855
 H        -0.871597        -0.603519         0.832775
 H        -0.107560         0.982009         0.540075
 H        -0.447394        -0.135182        -0.803242
 H         4.060476        -0.856457         0.067415
 H         1.819746        -2.617712        -0.248654
 H         0.644680        -2.649145         2.408560
 H         2.112956        -3.591163         2.032454
 H         2.403844        -1.866898         4.134353
 H         3.740990        -1.931379         2.916443
 H         2.445357         1.102581         1.349695
