19
Iteration:  3848charge 0 multiplicity 1
 C        -0.221818        -0.247766         0.356175
 C         1.310000        -0.470602         0.450503
 O         2.269982        -0.219709        -0.658945
 C         3.084096        -0.878551         0.347878
 C         2.002423        -1.950990         0.648933
 C         1.773854        -2.579357         2.118785
 C         2.492213        -1.631998         3.033590
 O         2.275608        -0.242829         2.797958
 C         2.375365         0.055135         1.396710
 H        -0.628883        -0.720181         1.258213
 H        -0.409377         0.828449         0.294793
 H        -0.428970        -0.772618        -0.562097
 H         4.141028        -1.105180         0.149832
 H         1.779526        -2.773848        -0.032316
 H         0.749782        -2.777965         2.272199
 H         2.118356        -3.561896         2.067771
 H         1.980599        -1.828129         4.038601
 H         3.629413        -1.782774         2.970344
 H         2.481888         1.139618         1.270572
