19
Iteration:  2543
 C        -0.102864        -0.093196         0.351459
 C         1.245001        -0.631762         0.508748
 O         2.284751        -0.222979        -0.621624
 C         3.119248        -0.801653         0.436121
 C         1.986759        -1.971297         0.492485
 C         1.875291        -2.608889         1.997374
 C         2.462380        -1.717934         3.068678
 O         2.238828        -0.261544         2.850792
 C         2.251460         0.037701         1.397939
 H        -0.709391        -0.417487         1.286408
 H        -0.099593         1.002948         0.545530
 H        -0.600021        -0.214941        -0.597200
 H         4.193379        -0.879783         0.051346
 H         1.880963        -2.678204        -0.309634
 H         0.777042        -2.778996         2.074633
 H         2.254275        -3.550356         1.992446
 H         2.140729        -1.700352         4.055460
 H         3.492049        -1.884962         3.195348
 H         2.181360         1.084440         1.191380
