19
Iteration:  4270charge 0 multiplicity 1
 C        -0.237889        -0.319755         0.411144
 C         1.337049        -0.597292         0.464928
 O         2.275875        -0.303381        -0.749101
 C         3.112802        -0.795379         0.473986
 C         1.972260        -1.861318         0.687031
 C         1.732019        -2.500816         2.027591
 C         2.421818        -1.651909         3.073624
 O         2.377161        -0.252162         2.708490
 C         2.389389         0.112954         1.441163
 H        -0.457142        -0.283629         1.542737
 H        -0.378430         0.569951        -0.251168
 H        -0.846770        -1.208595         0.024075
 H         4.150662        -0.986467         0.351956
 H         1.866800        -2.486211        -0.201660
 H         0.634695        -2.487824         2.212065
 H         1.829955        -3.665224         1.876611
 H         1.938001        -1.826490         4.020678
 H         3.475214        -1.810715         3.065877
 H         2.551630         1.227234         1.234299
