19
Iteration:  3974charge 0 multiplicity 1
 C        -0.123418        -0.034318         0.274336
 C         1.241845        -0.531422         0.401317
 O         2.302514        -0.250604        -0.709495
 C         2.987770        -0.972679         0.444603
 C         1.888291        -2.003898         0.691156
 C         1.974063        -2.604725         2.133946
 C         2.696118        -1.568403         3.090066
 O         2.107334        -0.300190         2.755666
 C         2.190592         0.012700         1.441601
 H        -0.532343         0.056527         1.265571
 H        -0.083830         1.011087        -0.044993
 H        -0.695850        -0.763993        -0.247597
 H         4.021001        -1.115290         0.158453
 H         1.999670        -2.591554        -0.231415
 H         0.887463        -2.734414         2.409546
 H         2.649238        -3.540894         2.065059
 H         2.530055        -1.766500         4.113570
 H         3.855536        -1.636930         2.890265
 H         2.470849         1.111865         1.340217
