19
Iteration:  3279
 C        -0.182570        -0.096126         0.446476
 C         1.231680        -0.503406         0.440929
 O         2.316703        -0.222804        -0.693610
 C         3.051467        -0.927723         0.426812
 C         1.967034        -1.915032         0.568619
 C         2.014363        -2.555945         1.960199
 C         2.472218        -1.619420         3.091360
 O         2.118024        -0.297339         2.801726
 C         2.310753        -0.019228         1.432307
 H        -0.525570        -0.310097         1.471749
 H        -0.238245         0.987235         0.165528
 H        -0.779010        -0.741297        -0.331307
 H         4.131437        -1.024899         0.489894
 H         1.920911        -2.578524        -0.279775
 H         1.015967        -3.114031         2.131042
 H         2.657333        -3.469143         1.850729
 H         2.027708        -2.137556         4.041108
 H         3.686931        -1.884746         3.217178
 H         2.694004         1.031567         1.293830
