19
Iteration:  1835charge 0 multiplicity 1
 C        -0.157449        -0.122963         0.310407
 C         1.277991        -0.607537         0.461300
 O         2.214372        -0.245324        -0.672717
 C         3.063323        -0.780232         0.362877
 C         2.028795        -1.982623         0.583597
 C         1.788445        -2.586850         2.015129
 C         2.412223        -1.651828         3.081617
 O         2.353702        -0.240817         2.874291
 C         2.344823         0.017858         1.464382
 H        -0.762962        -0.424564         1.160000
 H        -0.142679         0.968885         0.250311
 H        -0.593516        -0.627479        -0.578888
 H         4.174992        -0.801234         0.161264
 H         1.942923        -2.746405        -0.186825
 H         0.702898        -2.738317         2.294222
 H         2.270486        -3.636704         2.252664
 H         2.114418        -1.935092         4.034193
 H         3.530599        -1.999857         2.947660
 H         2.510241         1.080609         1.273293
