19
Iteration:  1742
 C        -0.107411        -0.098823         0.223663
 C         1.262302        -0.538910         0.444004
 O         2.184726        -0.231699        -0.661065
 C         3.102214        -0.847448         0.405541
 C         1.939714        -1.928413         0.704938
 C         1.829713        -2.644831         2.085606
 C         2.580636        -1.716178         3.055784
 O         2.238340        -0.293178         2.817961
 C         2.348263         0.055384         1.445974
 H        -0.852171        -0.233110         1.104068
 H        -0.181276         1.046638         0.071014
 H        -0.648780        -0.631673        -0.631210
 H         4.098653        -0.963273         0.080492
 H         1.774733        -2.471090        -0.252865
 H         0.799778        -2.778603         2.394659
 H         2.188087        -3.670581         1.999374
 H         2.351582        -1.857592         4.216074
 H         3.769728        -1.783702         2.935981
 H         2.397995         1.157793         1.372314
