19
Iteration:  3839
 C        -0.183694        -0.172772         0.380982
 C         1.270977        -0.552296         0.394756
 O         2.288822        -0.205782        -0.646180
 C         3.080672        -0.945971         0.373441
 C         1.939864        -1.929560         0.614549
 C         1.866471        -2.547716         2.076161
 C         2.543956        -1.623323         3.101148
 O         2.212393        -0.255611         2.764598
 C         2.329184         0.005669         1.426157
 H        -0.708745        -0.550650         1.232616
 H        -0.421816         0.837592         0.108875
 H        -0.626679        -0.687878        -0.500258
 H         4.190577        -1.007323         0.176713
 H         1.812640        -2.636690        -0.221101
 H         0.747106        -2.578058         2.275984
 H         2.371483        -3.566880         2.103316
 H         2.276591        -1.640420         4.164109
 H         3.574601        -1.836943         3.202264
 H         2.529026         1.031454         1.338096
