19
Iteration:  2823charge 0 multiplicity 1
 C        -0.168028        -0.218387         0.176230
 C         1.273414        -0.550941         0.498817
 O         2.181156        -0.174418        -0.613921
 C         3.054287        -0.746448         0.431718
 C         2.063249        -1.938699         0.674406
 C         1.754053        -2.519267         2.001434
 C         2.560528        -1.785884         3.033518
 O         2.312309        -0.377630         2.817472
 C         2.319488         0.070021         1.518423
 H        -0.697824        -0.232917         1.147098
 H        -0.088851         0.816620        -0.216953
 H        -0.389560        -0.919554        -0.705225
 H         4.084469        -0.805503         0.160090
 H         1.806634        -2.615739        -0.209678
 H         0.675965        -2.310451         2.294602
 H         1.924804        -3.590242         2.115772
 H         2.372893        -1.811430         4.110384
 H         3.676218        -1.841941         2.820475
 H         2.389146         1.204401         1.401748
