19
Iteration:  2753charge 0 multiplicity 1
 C        -0.136622        -0.146147         0.334811
 C         1.352742        -0.510624         0.483490
 O         2.189313        -0.209135        -0.652304
 C         3.066385        -0.844400         0.326184
 C         2.023708        -1.930597         0.667865
 C         1.852153        -2.640787         2.029028
 C         2.449367        -1.653211         3.073492
 O         2.150138        -0.337086         2.798043
 C         2.388460         0.078966         1.446113
 H        -0.667757        -0.690187         1.178096
 H        -0.203452         0.945416         0.589887
 H        -0.263788        -0.267591        -0.765970
 H         4.157954        -0.911989        -0.001936
 H         1.987743        -2.565125        -0.240099
 H         0.803655        -2.932674         2.139801
 H         2.416068        -3.546741         2.016472
 H         2.029383        -2.024174         4.059924
 H         3.544726        -1.813917         3.135430
 H         2.735319         1.097661         1.409335
