19
Iteration:  1557charge 0 multiplicity 1
 C        -0.149983        -0.106545         0.267799
 C         1.295799        -0.421787         0.471084
 O         2.216341        -0.277740        -0.592657
 C         3.000015        -0.974146         0.475681
 C         1.874748        -1.894110         0.673677
 C         1.923958        -2.634764         1.997580
 C         2.577498        -1.641485         3.066703
 O         2.177486        -0.278168         2.750444
 C         2.378401         0.076622         1.420271
 H        -0.750639        -0.606727         1.002040
 H        -0.277170         0.947194         0.005822
 H        -0.301052        -0.739294        -0.578949
 H         4.004251        -1.235153         0.386505
 H         1.578580        -2.533886        -0.099839
 H         0.945745        -3.048905         2.379439
 H         2.589963        -3.550349         1.895626
 H         2.403442        -1.738275         4.194581
 H         3.793217        -1.684720         2.847244
 H         2.831448         1.031773         1.156485
