19
Iteration:  4820
 C        -0.242745        -0.248958         0.319688
 C         1.277665        -0.443557         0.500513
 O         2.251867        -0.246141        -0.668573
 C         3.165906        -0.872152         0.397992
 C         1.954655        -1.893888         0.658865
 C         1.829981        -2.631940         2.071422
 C         2.435196        -1.651803         3.039013
 O         2.311373        -0.297214         2.796773
 C         2.367490         0.124154         1.422441
 H        -0.793375        -1.046653         0.795433
 H        -0.572410         0.641620         0.826052
 H        -0.469085        -0.089602        -0.738543
 H         4.209295        -1.016998         0.205593
 H         1.924320        -2.512480        -0.285911
 H         0.669862        -2.852340         2.260769
 H         2.276932        -3.611439         1.895166
 H         2.018002        -1.830070         4.080071
 H         3.572249        -1.969393         2.852557
 H         2.630864         1.191055         1.324858
