19
Iteration:  3009
 C        -0.222907        -0.248208         0.150426
 C         1.245047        -0.570680         0.470389
 O         2.223923        -0.129370        -0.653699
 C         3.080500        -0.754404         0.449940
 C         2.002302        -1.951674         0.638717
 C         1.710366        -2.570699         2.039976
 C         2.595810        -1.723814         3.017055
 O         2.369355        -0.311445         2.871317
 C         2.359409         0.067700         1.554542
 H        -1.000809        -0.467023         0.999788
 H        -0.450125         0.812784        -0.076002
 H        -0.467390        -0.792462        -0.838760
 H         4.167120        -0.832541         0.268063
 H         1.918670        -2.720112        -0.163700
 H         0.578479        -2.468348         2.213443
 H         2.011816        -3.630505         2.353340
 H         2.362253        -2.024937         4.025126
 H         3.675511        -2.154106         2.735118
 H         2.404319         1.145701         1.339467
