19
Iteration:  3215
 C        -0.173640        -0.185945         0.170112
 C         1.261920        -0.589584         0.467774
 O         2.214359        -0.212684        -0.588546
 C         3.043776        -0.797058         0.342864
 C         2.001709        -1.887585         0.626626
 C         1.816565        -2.562942         2.010336
 C         2.634127        -1.732350         3.033817
 O         2.294461        -0.333401         2.921119
 C         2.267017         0.072673         1.493022
 H        -0.876423        -0.375029         0.939868
 H        -0.316629         0.874055         0.021942
 H        -0.484057        -0.498758        -0.837203
 H         4.109889        -0.930054         0.247453
 H         1.892760        -2.569923        -0.185891
 H         0.838464        -2.538833         2.402199
 H         1.986911        -3.734958         2.020562
 H         2.343309        -1.882536         4.086502
 H         3.636169        -1.776273         2.920251
 H         2.445487         1.149711         1.518599
