19
Iteration:  4904charge 0 multiplicity 1
 C        -0.141453        -0.193778         0.249423
 C         1.315120        -0.471363         0.500931
 O         2.242978        -0.294190        -0.610662
 C         3.062710        -0.883312         0.435656
 C         1.897843        -1.878009         0.716938
 C         1.886752        -2.574853         1.979290
 C         2.515427        -1.689438         2.979665
 O         2.207250        -0.302362         2.863168
 C         2.365197         0.123635         1.411292
 H        -0.777325        -0.400652         1.125662
 H        -0.321795         0.916186         0.001229
 H        -0.541273        -0.788989        -0.592923
 H         4.064408        -1.065789         0.048256
 H         1.679478        -2.536385        -0.082262
 H         0.934322        -2.857434         2.303142
 H         2.393091        -3.540828         1.752984
 H         2.344398        -1.906797         4.091149
 H         3.585913        -1.901069         2.868159
 H         2.547466         1.221837         1.356892
