19
Iteration:  1218charge 0 multiplicity 1
 C        -0.150982         0.011806         0.304132
 C         1.238877        -0.615060         0.356140
 O         2.174135        -0.261422        -0.663894
 C         3.069837        -0.901175         0.400866
 C         2.117485        -2.078612         0.663184
 C         1.791138        -2.574452         2.051607
 C         2.553183        -1.645985         3.065777
 O         2.258366        -0.234803         2.835315
 C         2.331729         0.006167         1.455028
 H        -0.853025        -0.492762         1.001510
 H        -0.335081         1.045134         0.747671
 H        -0.681409        -0.087454        -0.681878
 H         4.109014        -0.847613         0.091777
 H         2.187328        -2.742769        -0.194818
 H         0.786485        -2.466991         2.322441
 H         2.242218        -3.573237         2.135494
 H         2.168021        -1.917852         4.142206
 H         3.632988        -1.725706         3.098097
 H         2.341643         1.099813         1.216378
