19
Iteration:  3833charge 0 multiplicity 1
 C        -0.147431        -0.152505         0.327055
 C         1.257505        -0.590796         0.415680
 O         2.289361        -0.208417        -0.659572
 C         3.074997        -0.943075         0.421096
 C         1.905717        -1.950644         0.604322
 C         1.914723        -2.516904         2.011727
 C         2.554439        -1.606743         3.158001
 O         2.185744        -0.276472         2.764909
 C         2.307321        -0.010212         1.416267
 H        -0.747307        -0.326947         1.282539
 H        -0.323734         0.966684         0.256886
 H        -0.850829        -0.716935        -0.330552
 H         4.121213        -1.042606         0.169575
 H         1.779686        -2.566797        -0.305677
 H         0.879798        -2.585687         2.405370
 H         2.429572        -3.490380         2.156060
 H         2.277479        -1.763713         4.218515
 H         3.729820        -1.759245         3.136771
 H         2.627110         1.081291         1.254221
