19
Iteration:  3680
 C        -0.226088        -0.313737         0.350999
 C         1.285517        -0.561563         0.405863
 O         2.245498        -0.175617        -0.647318
 C         3.090434        -0.840658         0.392551
 C         2.018525        -1.927712         0.586884
 C         1.786141        -2.476479         1.995358
 C         2.434402        -1.672721         3.118498
 O         2.380064        -0.234940         2.833292
 C         2.357542         0.004918         1.421373
 H        -0.681800        -1.054045         0.995169
 H        -0.444355         0.731950         0.590879
 H        -0.501220        -0.228178        -0.724209
 H         4.103692        -0.981083         0.138445
 H         1.867956        -2.810025        -0.054150
 H         0.743269        -2.489801         2.231768
 H         1.912444        -3.500204         2.129123
 H         1.903379        -1.813945         4.027568
 H         3.443473        -2.134979         3.302214
 H         2.627185         1.099498         1.311461
