19
Iteration:  3059charge 0 multiplicity 1
 C        -0.178010        -0.168261         0.288478
 C         1.262163        -0.462953         0.420980
 O         2.298255        -0.131933        -0.608342
 C         3.063934        -0.873801         0.338326
 C         1.970496        -1.900847         0.694046
 C         1.867287        -2.651648         2.067697
 C         2.558803        -1.663983         3.094183
 O         2.117267        -0.375793         2.795254
 C         2.384467         0.034281         1.428830
 H        -0.749906        -0.284143         1.185969
 H        -0.266492         0.886190         0.000114
 H        -0.726896        -0.868005        -0.388134
 H         4.083756        -0.913433        -0.039447
 H         1.790135        -2.512544        -0.196901
 H         0.831862        -2.795876         2.337638
 H         2.614907        -3.503727         2.109033
 H         2.190871        -2.095360         4.105816
 H         3.677849        -1.881265         2.849133
 H         2.685296         1.129344         1.243108
