19
Iteration:  1052
 C        -0.045539        -0.226246         0.379200
 C         1.358184        -0.438972         0.486148
 O         2.208146        -0.253760        -0.716851
 C         3.069614        -1.021110         0.355049
 C         1.841311        -1.874396         0.644271
 C         1.867724        -2.551068         1.969892
 C         2.467102        -1.622789         3.036316
 O         2.201181        -0.244737         2.864126
 C         2.381288         0.066214         1.486075
 H        -0.493531        -0.160439         1.414155
 H        -0.429066         0.732843        -0.044358
 H        -0.379373        -1.129924        -0.187792
 H         4.111226        -1.314974         0.027748
 H         1.555983        -2.479049        -0.208660
 H         0.902523        -2.831991         2.259519
 H         2.575437        -3.421568         1.853867
 H         1.949723        -1.949754         3.966869
 H         3.457527        -1.682971         3.149514
 H         2.853588         1.027949         1.313759
