19
Iteration:  1839
 C        -0.127517        -0.131802         0.316396
 C         1.232484        -0.593251         0.420500
 O         2.228482        -0.237207        -0.676639
 C         3.061944        -0.812599         0.357425
 C         1.994213        -1.952495         0.619743
 C         1.825237        -2.593669         1.996905
 C         2.421776        -1.665270         3.064795
 O         2.349167        -0.246033         2.877522
 C         2.350520         0.013533         1.503452
 H        -0.746370        -0.410800         1.175529
 H        -0.293160         0.939673         0.166172
 H        -0.629122        -0.514176        -0.534325
 H         4.098891        -0.900388         0.161401
 H         2.059988        -2.790413        -0.128382
 H         0.764623        -2.838481         2.266970
 H         2.237942        -3.552386         2.222809
 H         2.073563        -1.817578         4.143107
 H         3.451973        -1.790581         2.960784
 H         2.571030         1.023682         1.185896
