19
Iteration:  3128
 C        -0.224317        -0.142156         0.351256
 C         1.235789        -0.539434         0.461276
 O         2.266305        -0.169931        -0.645976
 C         3.079112        -0.821015         0.393103
 C         2.062121        -1.960790         0.578169
 C         1.893610        -2.598994         2.003401
 C         2.454172        -1.707589         3.112800
 O         2.247488        -0.310305         2.772774
 C         2.320590         0.048658         1.443179
 H        -0.635769        -0.406820         1.300639
 H        -0.237826         0.922358         0.264802
 H        -0.657992        -0.688275        -0.502790
 H         4.158053        -0.948762         0.392520
 H         1.899431        -2.660164        -0.211109
 H         0.872200        -2.659071         2.243748
 H         2.467692        -3.618334         1.996155
 H         1.817003        -1.844681         3.973220
 H         3.647266        -2.074639         3.285533
 H         2.529114         1.109638         1.290985
