19
Iteration:   425charge 0 multiplicity 1
 C        -0.238522        -0.182937         0.239876
 C         1.276872        -0.493652         0.455105
 O         2.239231        -0.249844        -0.636698
 C         3.073534        -0.888844         0.433983
 C         1.935858        -1.915050         0.668829
 C         1.727454        -2.539100         2.058237
 C         2.570440        -1.662978         3.024218
 O         2.346542        -0.269258         2.791495
 C         2.431956        -0.006042         1.495349
 H        -0.789111         0.097430         1.189410
 H        -0.321076         0.680100        -0.460879
 H        -0.631560        -1.139572        -0.123156
 H         4.054406        -1.109356         0.091415
 H         1.644487        -2.520236        -0.185554
 H         0.647328        -2.450894         2.276560
 H         2.075788        -3.508100         2.116929
 H         2.361758        -1.846139         4.076773
 H         3.535105        -1.870737         2.836857
 H         2.657654         1.025838         1.384655
