19
Iteration:  2664
 C        -0.181067        -0.239334         0.179852
 C         1.289315        -0.421627         0.457228
 O         2.201718        -0.201419        -0.606979
 C         3.134227        -0.856931         0.422878
 C         1.954241        -1.877412         0.687883
 C         1.734460        -2.573780         1.968936
 C         2.538745        -1.727308         3.014078
 O         2.269691        -0.342311         2.886811
 C         2.418747         0.078048         1.498964
 H        -0.904872        -0.221431         1.107149
 H        -0.487887         0.592571        -0.501514
 H        -0.585573        -1.201260        -0.300872
 H         4.269078        -0.963418         0.193134
 H         1.863462        -2.496958        -0.234027
 H         0.704095        -2.502687         2.333283
 H         2.005336        -3.618768         1.994095
 H         2.445002        -2.065053         4.103315
 H         3.702201        -1.725489         2.703097
 H         2.715668         1.114530         1.557741
