19
Iteration:  3053
 C        -0.181990        -0.181302         0.284383
 C         1.286167        -0.498556         0.422056
 O         2.288273        -0.107635        -0.644378
 C         3.053067        -0.869790         0.422368
 C         1.929321        -1.940979         0.672832
 C         1.869483        -2.623040         2.045567
 C         2.545206        -1.687110         3.060533
 O         2.190766        -0.352902         2.805403
 C         2.335282         0.062425         1.425870
 H        -0.625983        -0.237358         1.328539
 H        -0.370016         0.829847        -0.123927
 H        -0.478022        -0.807766        -0.573973
 H         4.142396        -0.908681         0.208330
 H         1.806442        -2.605522        -0.203488
 H         0.895612        -2.858332         2.580633
 H         2.335068        -3.661545         2.036800
 H         2.316905        -2.023997         4.031432
 H         3.603307        -1.803997         2.899902
 H         2.600906         1.098879         1.420228
