19
Iteration:  4418charge 0 multiplicity 1
 C        -0.227208        -0.355471         0.308445
 C         1.257855        -0.532971         0.500214
 O         2.237489        -0.275297        -0.685283
 C         3.116043        -0.900549         0.430090
 C         1.925500        -1.865208         0.651169
 C         1.712574        -2.490276         2.043318
 C         2.495562        -1.647332         3.040225
 O         2.435271        -0.233724         2.791647
 C         2.354565         0.163130         1.406915
 H        -0.848391        -0.578717         1.163097
 H        -0.350312         0.684158         0.068092
 H        -0.290463        -1.011887        -0.533302
 H         4.228350        -1.257219         0.346470
 H         1.880325        -2.502307        -0.242999
 H         0.619925        -2.566178         2.301665
 H         2.093491        -3.639215         2.107647
 H         2.065189        -1.797499         4.027805
 H         3.482913        -2.027904         3.175776
 H         2.673399         1.180967         1.500627
