19
Iteration:  4322
 C        -0.167170        -0.070310         0.228254
 C         1.273002        -0.532359         0.475642
 O         2.235876        -0.313645        -0.661347
 C         3.019270        -0.972577         0.384385
 C         1.902271        -1.962082         0.672129
 C         1.985564        -2.517053         2.100703
 C         2.610813        -1.589716         3.121945
 O         2.184069        -0.292498         2.823833
 C         2.299869         0.045136         1.376004
 H        -0.901384        -0.465862         0.943274
 H        -0.162974         1.022287         0.328049
 H        -0.390867        -0.436858        -0.771166
 H         4.092510        -1.011527         0.014970
 H         1.537938        -2.581314        -0.166061
 H         1.032834        -2.889620         2.484682
 H         2.483618        -3.406846         1.988221
 H         2.160010        -1.949192         4.044015
 H         3.733275        -1.710717         3.330423
 H         2.541994         1.101440         1.081613
