19
Iteration:  2102
 C        -0.147866        -0.114440         0.254287
 C         1.282902        -0.529585         0.456876
 O         2.246848        -0.257174        -0.646705
 C         3.019087        -0.835327         0.467407
 C         1.886604        -1.934767         0.644150
 C         1.866465        -2.579246         2.004234
 C         2.501544        -1.676629         3.005695
 O         2.323229        -0.319530         2.813737
 C         2.321288         0.066996         1.505341
 H        -0.567570        -0.128066         1.229057
 H        -0.121773         0.877028        -0.154681
 H        -0.605914        -0.814996        -0.419146
 H         4.064388        -0.895900         0.345129
 H         1.718223        -2.575822        -0.269377
 H         0.848681        -2.918039         2.343990
 H         2.330098        -3.651059         1.926643
 H         2.215294        -1.848651         4.095945
 H         3.603108        -1.899809         3.055753
 H         2.566234         1.107910         1.303622
