19
Iteration:  3230charge 0 multiplicity 1
 C        -0.156570        -0.114227         0.185875
 C         1.237525        -0.510748         0.540098
 O         2.120147        -0.201829        -0.625910
 C         3.124589        -0.837840         0.491089
 C         1.997426        -1.961837         0.658185
 C         1.906218        -2.569143         2.011309
 C         2.581270        -1.697238         3.038464
 O         2.204423        -0.338568         2.782292
 C         2.351141         0.047082         1.502500
 H        -0.930587        -0.497947         0.912390
 H        -0.032364         0.979510         0.071790
 H        -0.428259        -0.632366        -0.711562
 H         4.144475        -0.859410         0.001056
 H         1.790088        -2.601851        -0.253687
 H         0.792899        -2.734578         2.196068
 H         2.428674        -3.533922         2.046871
 H         2.361174        -2.043806         4.005641
 H         3.702621        -2.021747         2.946662
 H         2.406307         1.110395         1.343932
