19
Iteration:  1859
 C        -0.197392        -0.145273         0.286640
 C         1.290179        -0.460180         0.450452
 O         2.284351        -0.233408        -0.635619
 C         3.066261        -0.959849         0.456134
 C         1.863714        -1.889980         0.598984
 C         1.930983        -2.569922         1.989257
 C         2.526041        -1.660421         3.126836
 O         2.243573        -0.300915         2.793493
 C         2.346054         0.072065         1.403071
 H        -0.682887        -0.382218         1.236890
 H        -0.375081         0.923509         0.140961
 H        -0.722963        -0.652033        -0.449352
 H         4.104756        -1.230547         0.299776
 H         1.490044        -2.591709        -0.177029
 H         0.972360        -3.029887         2.516930
 H         2.588050        -3.573333         1.897545
 H         1.973331        -1.939897         4.018289
 H         3.623528        -1.919361         3.236736
 H         2.606953         1.101209         1.198728
