19
Iteration:  4687charge 0 multiplicity 1
 C        -0.099400        -0.015805         0.421044
 C         1.331995        -0.553040         0.432214
 O         2.197490        -0.319386        -0.695275
 C         3.056565        -0.863751         0.384551
 C         2.009159        -2.003676         0.618552
 C         1.981530        -2.623020         2.030270
 C         2.489954        -1.654371         3.075500
 O         2.086197        -0.268130         2.852254
 C         2.304385         0.066297         1.363154
 H        -0.314559         0.233924         1.416514
 H        -0.086878         0.848368        -0.270058
 H        -0.843162        -0.666153         0.007944
 H         4.070336        -0.994990         0.192580
 H         1.790443        -2.603873        -0.268784
 H         0.847017        -2.997331         2.217725
 H         2.689649        -3.416258         1.937975
 H         2.139126        -2.061304         4.060486
 H         3.602520        -1.500545         3.034531
 H         2.601128         1.111080         1.439001
