19
Iteration:  3892charge 0 multiplicity 1
 C        -0.270334        -0.374725         0.258796
 C         1.259345        -0.599379         0.450549
 O         2.262726        -0.161129        -0.668157
 C         3.048571        -0.882060         0.367720
 C         1.999569        -1.908413         0.614492
 C         1.727515        -2.430404         2.096949
 C         2.449962        -1.686035         3.106724
 O         2.516981        -0.244203         2.818352
 C         2.346567         0.077085         1.435754
 H        -0.567650        -1.141542         0.993914
 H        -0.635738         0.633506         0.430850
 H        -0.566986        -0.646701        -0.770884
 H         4.137022        -0.882178         0.207047
 H         1.862714        -2.617802        -0.214206
 H         0.667476        -2.301672         2.115565
 H         1.803993        -3.431405         2.347008
 H         1.918524        -1.647575         4.124713
 H         3.543771        -2.169319         3.178742
 H         2.571874         1.131373         1.394937
