19
Iteration:  3714
 C        -0.133303        -0.373763         0.312559
 C         1.274330        -0.471341         0.469677
 O         2.262277        -0.244570        -0.677189
 C         3.122226        -0.764311         0.432042
 C         1.955392        -1.899456         0.690842
 C         1.647873        -2.500616         2.031934
 C         2.469926        -1.739116         3.032599
 O         2.411349        -0.296790         2.811876
 C         2.336666         0.120702         1.410562
 H        -0.739080        -0.735699         1.141474
 H        -0.499150         0.630144         0.247383
 H        -0.424210        -1.054075        -0.482981
 H         4.079158        -0.876554         0.061737
 H         1.779650        -2.585562        -0.157178
 H         0.626367        -2.282970         2.259085
 H         1.931928        -3.507398         1.926146
 H         2.089484        -1.893523         4.056202
 H         3.555143        -1.918088         2.995401
 H         2.685983         1.212044         1.419924
