19
Iteration:  2016charge 0 multiplicity 1
 C        -0.154265        -0.069878         0.342652
 C         1.244338        -0.606243         0.428156
 O         2.268431        -0.294107        -0.641630
 C         3.117673        -0.821364         0.403030
 C         2.021896        -1.946196         0.615337
 C         1.743606        -2.560078         1.957990
 C         2.497417        -1.700868         3.079016
 O         2.350132        -0.287110         2.808962
 C         2.233012         0.037633         1.458319
 H        -0.786328        -0.402493         1.133307
 H        -0.273943         0.975475         0.441220
 H        -0.725661        -0.510138        -0.467362
 H         4.194581        -0.734972         0.314208
 H         1.960956        -2.668550        -0.212615
 H         0.755955        -2.491557         2.217567
 H         2.324143        -3.479815         2.030503
 H         2.175088        -1.754812         4.178906
 H         3.593225        -1.965219         3.177440
 H         2.377059         1.118904         1.276422
