19
Iteration:  4554charge 0 multiplicity 1
 C        -0.134926        -0.156771         0.138666
 C         1.229894        -0.588636         0.452539
 O         2.202189        -0.273922        -0.596339
 C         2.980086        -0.899258         0.481068
 C         1.879113        -2.018278         0.600814
 C         1.832451        -2.527452         2.082116
 C         2.727643        -1.629096         3.052915
 O         2.272612        -0.209991         2.838177
 C         2.353564         0.062950         1.475763
 H        -0.938896        -0.565852         0.766299
 H        -0.214478         0.939125         0.273899
 H        -0.569659        -0.478606        -0.808309
 H         4.051082        -0.983646         0.157310
 H         1.887927        -2.638790        -0.327399
 H         0.707949        -2.692306         2.322081
 H         2.106766        -3.598037         2.106409
 H         2.627732        -1.899722         4.118787
 H         3.757849        -1.701511         2.864081
 H         2.504754         1.228673         1.441123
