19
Iteration:   599charge 0 multiplicity 1
 C        -0.231171        -0.174587         0.241631
 C         1.275069        -0.618328         0.449099
 O         2.256657        -0.279085        -0.607938
 C         3.010641        -0.827097         0.402589
 C         2.012458        -1.929444         0.677445
 C         1.707415        -2.437641         2.067231
 C         2.601368        -1.758429         3.033775
 O         2.458340        -0.319034         2.799434
 C         2.265606         0.115432         1.449504
 H        -1.020154        -0.260743         0.957838
 H        -0.008155         0.844792         0.016297
 H        -0.541175        -0.196206        -0.774739
 H         4.045537        -1.004401         0.201212
 H         1.855401        -2.655384        -0.116035
 H         0.640468        -2.426903         2.478776
 H         1.884165        -3.541719         2.316796
 H         2.199111        -1.869796         4.054642
 H         3.562517        -2.105773         2.981523
 H         2.188875         1.131536         1.151500
