19
Iteration:  1523
 C        -0.107728         0.020484         0.296643
 C         1.224272        -0.635894         0.352713
 O         2.232380        -0.269004        -0.696915
 C         3.044229        -0.804608         0.395544
 C         2.044111        -2.039697         0.633176
 C         1.833428        -2.591825         2.142270
 C         2.588100        -1.671485         3.103032
 O         2.243509        -0.300639         2.822777
 C         2.194062         0.010599         1.441587
 H        -0.558333         0.091455         1.325628
 H        -0.050968         1.097299         0.037899
 H        -0.719101        -0.478869        -0.455094
 H         4.107825        -0.852276         0.268001
 H         2.039004        -2.746128        -0.190453
 H         0.701729        -2.666437         2.243626
 H         2.326379        -3.608949         2.137623
 H         2.523803        -1.854222         4.243050
 H         3.803487        -1.637528         2.891115
 H         2.294195         1.100114         1.287609
