19
Iteration:  3746
 C        -0.243980        -0.189635         0.198743
 C         1.273209        -0.568465         0.443719
 O         2.287691        -0.162590        -0.624960
 C         3.045231        -0.916123         0.392873
 C         1.898923        -1.987790         0.637056
 C         1.824339        -2.555411         2.038573
 C         2.553238        -1.654224         3.027050
 O         2.318573        -0.216518         2.911834
 C         2.317195         0.029541         1.506294
 H        -0.673693        -0.073284         1.193113
 H        -0.244684         0.650813        -0.497093
 H        -0.774857        -0.986962        -0.359581
 H         4.039935        -1.023575         0.028187
 H         1.824309        -2.703127        -0.198994
 H         0.843912        -2.701763         2.321560
 H         2.310853        -3.460768         2.032723
 H         2.482709        -2.084510         4.006141
 H         3.679790        -1.704010         2.890072
 H         2.725303         1.052485         1.254864
