19
Iteration:  2085charge 0 multiplicity 1
 C        -0.257475        -0.107467         0.262188
 C         1.243096        -0.424311         0.466467
 O         2.343821        -0.217882        -0.633921
 C         3.073337        -1.010285         0.446673
 C         1.884312        -1.900141         0.611222
 C         1.897004        -2.645754         1.988086
 C         2.588738        -1.674712         3.116080
 O         2.200617        -0.229060         2.861257
 C         2.371327         0.012345         1.406768
 H        -0.837751        -0.173093         1.253044
 H        -0.474025         0.979015         0.022873
 H        -0.756533        -0.871377        -0.402894
 H         4.100117        -1.389561         0.038942
 H         1.615961        -2.495465        -0.241532
 H         0.817158        -2.923700         2.173984
 H         2.615986        -3.334512         1.681165
 H         2.272704        -2.069669         4.045131
 H         3.682809        -1.873350         3.076439
 H         2.583407         1.100140         1.335237
