19
Iteration:  2040charge 0 multiplicity 1
 C        -0.106152        -0.048969         0.368796
 C         1.283322        -0.572497         0.434584
 O         2.166288        -0.263274        -0.711836
 C         3.136513        -0.889974         0.420669
 C         2.024926        -1.935616         0.703446
 C         1.855136        -2.653748         2.000758
 C         2.496620        -1.731699         3.019119
 O         2.176259        -0.270845         2.815783
 C         2.333727         0.108574         1.433356
 H        -0.832888        -0.264584         1.166746
 H        -0.039801         1.040798         0.354226
 H        -0.669640        -0.385266        -0.549191
 H         4.251100        -1.030035         0.302460
 H         1.952344        -2.654321        -0.063039
 H         0.777909        -2.592728         2.276102
 H         2.321091        -3.580951         2.075766
 H         2.205002        -1.908961         4.059320
 H         3.618724        -1.794608         2.970284
 H         2.574425         1.188307         1.356364
