19
Iteration:  3445charge 0 multiplicity 1
 C        -0.114965        -0.083458         0.352536
 C         1.261611        -0.581494         0.429542
 O         2.186793        -0.269980        -0.657777
 C         3.120817        -0.912352         0.433890
 C         1.975427        -1.977147         0.611962
 C         1.940801        -2.589979         1.977675
 C         2.521797        -1.644049         2.979584
 O         2.063090        -0.230090         2.848617
 C         2.392739         0.049301         1.484343
 H        -0.665535        -0.548044         1.238523
 H        -0.095463         1.035712         0.403257
 H        -0.518543        -0.276990        -0.657571
 H         4.253119        -1.030594         0.337294
 H         1.792658        -2.563087        -0.279564
 H         0.960404        -3.044308         2.368514
 H         2.514508        -3.470014         2.078611
 H         2.241972        -1.907567         4.031408
 H         3.593627        -1.613317         2.980324
 H         2.668999         1.077101         1.393991
