19
Iteration:  3309charge 0 multiplicity 1
 C        -0.078275        -0.209755         0.427648
 C         1.294855        -0.577790         0.574333
 O         2.228419        -0.213864        -0.668418
 C         3.162415        -0.770165         0.299808
 C         2.042872        -1.900098         0.667532
 C         1.826152        -2.621405         1.980292
 C         2.414511        -1.687443         3.028680
 O         2.185304        -0.297225         2.791817
 C         2.318856         0.072560         1.419801
 H        -0.540785        -0.182396         1.390456
 H        -0.214845         0.801038         0.004127
 H        -0.577220        -0.773608        -0.371607
 H         4.209844        -0.742461         0.077390
 H         1.880467        -2.590948        -0.191980
 H         0.759708        -2.963612         2.108712
 H         2.239256        -3.591900         2.066989
 H         2.011326        -1.935330         4.034741
 H         3.374106        -1.930249         2.876453
 H         2.395494         1.206062         1.438051
