19
Iteration:  4421
 C        -0.225990        -0.383955         0.334326
 C         1.263491        -0.511741         0.518393
 O         2.249352        -0.272141        -0.714247
 C         3.129946        -0.889734         0.420091
 C         1.920190        -1.889665         0.649570
 C         1.721524        -2.507698         2.055869
 C         2.474974        -1.664434         3.047185
 O         2.440004        -0.217611         2.797740
 C         2.349460         0.179840         1.423744
 H        -0.906602        -0.451321         1.175049
 H        -0.367331         0.621223         0.003683
 H        -0.343481        -0.976169        -0.570951
 H         4.199356        -1.272643         0.369008
 H         1.812877        -2.572868        -0.202656
 H         0.596766        -2.547714         2.176930
 H         2.120368        -3.495913         1.992415
 H         2.006266        -1.765434         4.000129
 H         3.470279        -2.162076         3.143544
 H         2.717942         1.262546         1.370896
