19
Iteration:  2288
 C        -0.235955        -0.165372         0.223616
 C         1.309181        -0.433197         0.504358
 O         2.329962        -0.163914        -0.609163
 C         3.053259        -0.894000         0.357310
 C         1.892146        -1.908396         0.628868
 C         1.847204        -2.584142         2.066234
 C         2.579342        -1.703225         3.066539
 O         2.234534        -0.344360         2.807729
 C         2.378175         0.034834         1.469806
 H        -0.879819        -0.171786         1.099533
 H        -0.674266         0.672458        -0.312134
 H        -0.583619        -1.044736        -0.371349
 H         4.063886        -1.176720         0.137181
 H         1.637557        -2.515420        -0.297903
 H         0.725444        -2.690495         2.151389
 H         2.114548        -3.512713         2.250291
 H         2.308569        -1.968333         4.108743
 H         3.647703        -1.937038         3.012965
 H         2.667241         1.112904         1.431017
