19
Iteration:  2290
 C        -0.252631        -0.164975         0.226384
 C         1.324278        -0.436954         0.495826
 O         2.323549        -0.161529        -0.603546
 C         3.053211        -0.878766         0.367138
 C         1.896634        -1.928159         0.619618
 C         1.840315        -2.572910         2.072275
 C         2.574878        -1.709794         3.036915
 O         2.241285        -0.334386         2.810138
 C         2.374036         0.020467         1.473898
 H        -0.895152        -0.166672         1.072403
 H        -0.636948         0.695964        -0.297126
 H        -0.566369        -1.035376        -0.333996
 H         4.128197        -1.195408         0.158065
 H         1.659420        -2.556214        -0.265852
 H         0.733065        -2.639189         2.174708
 H         2.115836        -3.575866         2.240145
 H         2.301031        -1.928492         4.100561
 H         3.664198        -1.939591         3.092102
 H         2.669093         1.122444         1.435372
