19
Iteration:   932
 C        -0.251023        -0.221852         0.223296
 C         1.228616        -0.514900         0.506416
 O         2.288074        -0.221875        -0.630784
 C         3.067954        -0.925133         0.425699
 C         1.945169        -1.934443         0.643789
 C         1.743618        -2.512806         1.999787
 C         2.527167        -1.655133         3.064068
 O         2.396232        -0.283873         2.846522
 C         2.358659         0.080663         1.455592
 H        -0.820793        -0.451086         1.143221
 H        -0.456758         0.830904         0.062720
 H        -0.538969        -0.873347        -0.616188
 H         4.095562        -1.100155         0.050259
 H         1.636077        -2.531098        -0.184027
 H         0.652781        -2.547421         2.244464
 H         2.210904        -3.541598         1.964194
 H         2.383455        -1.759956         4.166775
 H         3.599468        -2.015463         2.672996
 H         2.784958         1.076006         1.409891
