19
Iteration:   445
 C        -0.260401        -0.254545         0.309376
 C         1.249617        -0.444168         0.557791
 O         2.373649        -0.240311        -0.654248
 C         3.065789        -1.065523         0.383121
 C         1.791890        -1.892619         0.643964
 C         1.786208        -2.544122         1.934465
 C         2.526347        -1.654169         3.014818
 O         2.324023        -0.225539         2.864255
 C         2.441422         0.148790         1.423852
 H        -0.685570         0.143653         1.231098
 H        -0.427323         0.522774        -0.489271
 H        -0.650077        -1.244961        -0.006729
 H         4.073921        -1.259896         0.442304
 H         1.607808        -2.585020        -0.205971
 H         0.767293        -2.725798         2.381100
 H         2.292321        -3.476915         1.985566
 H         2.125555        -1.982253         4.035796
 H         3.728891        -1.809373         3.009180
 H         2.731530         1.142368         1.233012
