19
Iteration:  4658
 C        -0.176374        -0.137145         0.483041
 C         1.289161        -0.538468         0.444438
 O         2.291963        -0.322548        -0.685249
 C         3.095512        -0.799820         0.393112
 C         2.045190        -1.914843         0.659623
 C         1.849972        -2.553395         2.038216
 C         2.446205        -1.661596         3.080713
 O         2.198879        -0.333834         2.730833
 C         2.319619         0.072713         1.322490
 H        -0.552349        -0.184649         1.553631
 H        -0.349055         0.946307         0.185946
 H        -0.851867        -0.711348        -0.231552
 H         4.173401        -1.011216         0.213825
 H         1.859207        -2.673590        -0.163064
 H         0.812857        -2.706344         2.281571
 H         2.410249        -3.502998         1.942504
 H         2.069929        -1.860250         4.088042
 H         3.528248        -1.739501         3.100357
 H         2.548392         1.121528         1.416802
