19
Iteration:  1923charge 0 multiplicity 1
 C        -0.206642        -0.066364         0.277909
 C         1.189704        -0.684424         0.454652
 O         2.309435        -0.207073        -0.661061
 C         3.043387        -0.823682         0.407427
 C         2.030510        -1.981188         0.637176
 C         1.775235        -2.541703         2.074070
 C         2.584171        -1.724119         3.034055
 O         2.298322        -0.319718         2.823962
 C         2.240217         0.065540         1.440560
 H        -0.707619         0.006149         1.248654
 H         0.218461         0.902087         0.067508
 H        -0.804900        -0.435275        -0.531946
 H         4.127857        -1.059941         0.351646
 H         2.067264        -2.675529        -0.203679
 H         0.789383        -2.439489         2.226950
 H         2.179521        -3.555011         2.112731
 H         2.415045        -1.805589         4.059887
 H         3.685151        -1.782029         2.970230
 H         2.357606         1.127405         1.365212
