19
Iteration:  3401
 C        -0.211895        -0.172426         0.089776
 C         1.219514        -0.513524         0.446269
 O         2.246773        -0.236154        -0.705304
 C         3.033075        -0.794582         0.479259
 C         1.886827        -1.910338         0.678128
 C         1.859620        -2.559638         2.090681
 C         2.674223        -1.697750         3.062160
 O         2.294767        -0.379152         2.890946
 C         2.306645         0.079835         1.519222
 H        -0.886733        -0.655975         0.847605
 H        -0.317490         0.921522         0.280018
 H        -0.395439        -0.269222        -0.996288
 H         4.106128        -0.960988         0.164302
 H         1.967295        -2.576210        -0.170243
 H         0.802416        -2.774826         2.313044
 H         2.151240        -3.569306         2.054898
 H         2.473845        -1.985556         4.134441
 H         3.667114        -1.808969         2.811138
 H         2.482715         1.132867         1.394874
