19
Iteration:  1455charge 0 multiplicity 1
 C        -0.201801        -0.338897         0.312960
 C         1.294244        -0.428383         0.434497
 O         2.294361        -0.184991        -0.592562
 C         3.017645        -0.962436         0.435865
 C         1.871952        -1.889819         0.620813
 C         1.773419        -2.485368         1.952638
 C         2.472830        -1.637058         3.092619
 O         2.335623        -0.249505         2.781006
 C         2.441711         0.014336         1.438151
 H        -0.465264        -0.627929         1.363698
 H        -0.455338         0.683111        -0.034347
 H        -0.489668        -1.181732        -0.356337
 H         4.075962        -1.221092         0.088825
 H         1.685028        -2.552399        -0.288122
 H         0.731880        -2.585040         2.321807
 H         2.248914        -3.457393         2.049146
 H         2.129408        -1.671697         4.130307
 H         3.637557        -1.992184         3.139741
 H         2.716591         1.086681         1.303477
