19
Iteration:   270charge 0 multiplicity 1
 C        -0.182571        -0.125121         0.323941
 C         1.284127        -0.504350         0.421343
 O         2.216887        -0.296527        -0.644990
 C         3.066445        -0.868388         0.411559
 C         1.976024        -1.996242         0.612221
 C         1.764523        -2.522820         2.054659
 C         2.534317        -1.696601         3.039061
 O         2.329122        -0.292542         2.804115
 C         2.370302         0.078665         1.463216
 H        -0.614145         0.058524         1.306657
 H        -0.137915         0.843702        -0.237196
 H        -0.754441        -0.866585        -0.362487
 H         4.175906        -0.930957         0.287021
 H         1.922360        -2.710139        -0.264280
 H         0.676502        -2.366158         2.344350
 H         1.861648        -3.535937         2.227777
 H         2.108376        -1.825143         4.102973
 H         3.710523        -2.029747         3.002426
 H         2.493236         1.190921         1.318085
