19
Iteration:  3072
 C        -0.189606        -0.116682         0.320162
 C         1.325639        -0.485781         0.531435
 O         2.226650        -0.205137        -0.655301
 C         3.118974        -0.882863         0.320851
 C         1.987167        -1.904180         0.601715
 C         1.968589        -2.581276         2.017073
 C         2.509893        -1.707487         3.092320
 O         2.048603        -0.341265         2.785750
 C         2.394017         0.026048         1.477993
 H        -0.537823        -0.217806         1.303231
 H        -0.361458         0.897715         0.008150
 H        -0.646878        -0.723947        -0.498291
 H         4.140276        -1.158414         0.115104
 H         1.690410        -2.633436        -0.113224
 H         0.945596        -2.942364         2.138011
 H         2.384045        -3.685045         1.878038
 H         2.281292        -1.681227         4.184526
 H         3.590354        -1.629065         3.157292
 H         2.661279         1.131714         1.584078
