19
Iteration:  4806
 C        -0.239588        -0.294532         0.315547
 C         1.258116        -0.475804         0.458252
 O         2.343479        -0.218386        -0.677924
 C         3.012708        -0.864186         0.431363
 C         1.941690        -1.894792         0.605586
 C         1.753298        -2.520621         1.960036
 C         2.567819        -1.708888         3.097217
 O         2.351184        -0.260800         2.819357
 C         2.360707         0.060585         1.466026
 H        -0.655932        -1.174572         0.700365
 H        -0.766413         0.603132         0.677679
 H        -0.481446        -0.395836        -0.723115
 H         4.060718        -1.056860         0.289589
 H         1.603330        -2.475151        -0.197671
 H         0.685221        -2.480482         2.173968
 H         2.143625        -3.517159         2.206453
 H         2.203818        -1.903038         4.169143
 H         3.660652        -1.908369         3.187322
 H         2.516535         1.147866         1.426771
