19
Iteration:  1342
 C        -0.182195        -0.142961         0.168600
 C         1.265905        -0.479753         0.568610
 O         2.273027        -0.331758        -0.657365
 C         3.046393        -0.885045         0.424824
 C         1.902471        -1.883136         0.673179
 C         1.863747        -2.557095         2.028925
 C         2.617417        -1.659045         3.030112
 O         2.227314        -0.309851         2.837249
 C         2.354524         0.078707         1.453552
 H        -0.712017        -0.278573         1.129778
 H        -0.281476         0.934396        -0.030098
 H        -0.879743        -0.739365        -0.414121
 H         4.027180        -1.215368         0.133504
 H         1.614321        -2.532990        -0.179251
 H         0.824504        -2.663110         2.235039
 H         2.256348        -3.524340         2.008215
 H         2.345734        -1.918046         4.044817
 H         3.659228        -1.771365         2.990610
 H         2.656350         1.101834         1.217534
