19
Iteration:  1966charge 0 multiplicity 1
 C        -0.188844        -0.330768         0.236626
 C         1.306469        -0.445364         0.561271
 O         2.264448        -0.217375        -0.648105
 C         3.072271        -0.924295         0.373519
 C         1.863664        -1.807893         0.673340
 C         1.760446        -2.517754         1.967796
 C         2.488295        -1.735047         3.043424
 O         2.327601        -0.276252         2.880379
 C         2.474991         0.080773         1.455936
 H        -0.981992        -0.562992         1.003459
 H        -0.461518         0.715787         0.002663
 H        -0.418613        -1.043028        -0.599510
 H         4.069065        -1.217375        -0.067098
 H         1.444394        -2.341421        -0.172560
 H         0.748704        -2.506015         2.330282
 H         2.285943        -3.421844         1.983276
 H         2.271438        -1.965597         4.027472
 H         3.572947        -1.919642         3.019416
 H         2.608383         1.117716         1.204654
