19
Iteration:    64
 C        -0.114119        -0.042761         0.294707
 C         1.259793        -0.554503         0.338032
 O         2.215996        -0.327208        -0.721391
 C         3.037280        -0.861887         0.434094
 C         1.951545        -1.991494         0.692649
 C         1.713208        -2.591154         2.139192
 C         2.570588        -1.660860         3.113795
 O         2.387834        -0.276284         2.784561
 C         2.277104         0.065570         1.423943
 H        -0.867224        -0.685937         0.627471
 H        -0.128995         0.870210         0.873714
 H        -0.261820         0.348132        -0.758953
 H         4.104935        -1.049535         0.224760
 H         1.930080        -2.689591        -0.140113
 H         0.655937        -2.588224         2.404362
 H         2.099018        -3.679792         2.095921
 H         2.298834        -1.674908         4.237948
 H         3.683916        -1.948622         3.005864
 H         2.412888         1.182307         1.361809
