19
Iteration:   914
 C        -0.176348        -0.151891         0.288211
 C         1.300279        -0.618101         0.427315
 O         2.158778        -0.276390        -0.630291
 C         3.099020        -0.790249         0.433868
 C         1.946050        -1.990101         0.606050
 C         1.767937        -2.534623         2.004723
 C         2.553756        -1.719896         3.011763
 O         2.362949        -0.219726         2.851328
 C         2.365059         0.027569         1.459872
 H        -0.698813         0.029183         1.211889
 H        -0.180416         0.922646         0.004288
 H        -0.628934        -0.801661        -0.456119
 H         4.149175        -0.924286         0.416748
 H         2.101845        -2.668495        -0.275385
 H         0.707700        -2.225702         2.331743
 H         1.984873        -3.548727         2.154996
 H         2.002294        -1.953769         3.943787
 H         3.546308        -1.917990         3.134672
 H         2.335993         1.139082         1.398429
