19
Iteration:   534charge 0 multiplicity 1
 C        -0.213883        -0.127387         0.360936
 C         1.226678        -0.457098         0.464345
 O         2.328033        -0.258295        -0.642976
 C         2.987334        -1.001841         0.394774
 C         1.855502        -1.916524         0.611921
 C         1.887962        -2.599228         2.085460
 C         2.534946        -1.659413         3.113648
 O         2.252651        -0.227940         2.753936
 C         2.444759         0.049672         1.357547
 H        -0.860672        -0.641585         1.092750
 H        -0.377692         0.950831         0.323200
 H        -0.501747        -0.359749        -0.665944
 H         4.033850        -1.143523         0.321835
 H         1.726562        -2.598462        -0.232369
 H         0.867436        -3.026489         2.281719
 H         2.444455        -3.475103         1.939351
 H         2.164159        -1.793667         4.146316
 H         3.682626        -1.859599         3.147432
 H         2.783556         1.060618         1.389265
