19
Iteration:  3737
 C        -0.175003        -0.290711         0.222565
 C         1.205593        -0.506733         0.482772
 O         2.253451        -0.180505        -0.575039
 C         3.086359        -0.876112         0.473469
 C         1.942234        -1.962809         0.590109
 C         1.764666        -2.546820         2.027817
 C         2.530332        -1.670484         2.973520
 O         2.344000        -0.210597         2.839884
 C         2.395904         0.018899         1.460123
 H        -0.846336        -0.116023         1.086420
 H        -0.299008         0.697269        -0.155405
 H        -0.647091        -1.094734        -0.308504
 H         4.053108        -1.208720         0.225839
 H         1.708051        -2.716777        -0.164064
 H         0.702761        -2.519343         2.268036
 H         2.255643        -3.521077         2.044649
 H         2.318887        -1.795613         4.084800
 H         3.597725        -1.818778         2.732589
 H         2.533428         1.162074         1.372306
