19
Iteration:  1308
 C        -0.117668        -0.146318         0.232194
 C         1.261336        -0.655491         0.414375
 O         2.196656        -0.200919        -0.649450
 C         3.012292        -0.841454         0.456353
 C         2.035849        -1.974037         0.611973
 C         1.733095        -2.548013         2.074481
 C         2.557891        -1.686474         3.099464
 O         2.415796        -0.257140         2.803364
 C         2.225316         0.037993         1.418080
 H        -0.090786         0.127697         1.295976
 H         0.010583         0.831923        -0.270413
 H        -0.813497        -0.872491        -0.217010
 H         4.080550        -0.840460         0.331103
 H         1.937038        -2.701437        -0.211379
 H         0.695679        -2.393722         2.215799
 H         2.030886        -3.563507         2.155372
 H         2.122173        -1.905548         4.117211
 H         3.526744        -1.937229         3.081224
 H         2.139863         1.135914         1.537520
