19
Iteration:  4194charge 0 multiplicity 1
 C        -0.222934        -0.131599         0.219500
 C         1.232692        -0.509035         0.377877
 O         2.263170        -0.386642        -0.713076
 C         3.022903        -0.843538         0.390156
 C         1.887016        -1.913314         0.698466
 C         1.883616        -2.648895         2.084228
 C         2.620213        -1.651280         3.147932
 O         2.322853        -0.246950         2.849154
 C         2.264887         0.131278         1.442421
 H        -0.540545         0.077738         1.268803
 H        -0.040171         0.796179        -0.312350
 H        -0.882324        -0.691492        -0.447698
 H         4.077455        -0.938512         0.288716
 H         1.767098        -2.607586        -0.136211
 H         0.860780        -2.972386         2.301733
 H         2.645535        -3.538629         2.073208
 H         2.175121        -1.873338         4.121047
 H         3.698327        -1.774172         3.131950
 H         2.532448         1.241465         1.389918
