19
Iteration:  3829
 C        -0.159051        -0.135016         0.295762
 C         1.258211        -0.592404         0.440631
 O         2.283119        -0.223856        -0.666227
 C         3.051047        -0.921660         0.449701
 C         1.904975        -1.970279         0.590569
 C         1.945075        -2.495168         1.997804
 C         2.584999        -1.592751         3.168442
 O         2.169523        -0.289277         2.789184
 C         2.308252        -0.003075         1.395035
 H        -0.561737        -0.168593         1.303494
 H        -0.128806         0.954441         0.287307
 H        -0.889118        -0.689069        -0.293484
 H         4.143826        -1.130190         0.198517
 H         1.726723        -2.632686        -0.267932
 H         0.869442        -2.719111         2.459347
 H         2.449916        -3.564164         2.097880
 H         2.166825        -1.912733         4.110643
 H         3.608511        -1.594861         3.042284
 H         2.581156         0.979725         1.219051
