19
Iteration:  2871charge 0 multiplicity 1
 C        -0.233499        -0.194624         0.231430
 C         1.201345        -0.505091         0.476678
 O         2.301062        -0.168365        -0.543624
 C         3.103244        -0.900487         0.479507
 C         1.877401        -1.908524         0.645790
 C         1.898047        -2.638172         1.942525
 C         2.512992        -1.706356         2.929281
 O         2.281250        -0.278880         2.866351
 C         2.321578         0.085617         1.434690
 H        -0.673919         0.000538         1.242046
 H        -0.317925         0.789701        -0.314713
 H        -0.686336        -0.951349        -0.385163
 H         4.238210        -1.021718         0.444233
 H         1.905601        -2.510061        -0.287886
 H         0.899259        -3.013841         2.279840
 H         2.677584        -3.549522         2.035900
 H         2.055079        -1.817878         3.931664
 H         3.712911        -1.861383         3.056526
 H         2.628964         1.095030         1.343531
