19
Iteration:  1270charge 0 multiplicity 1
 C        -0.153250        -0.308029         0.294351
 C         1.309375        -0.392623         0.459711
 O         2.240642        -0.192579        -0.659421
 C         3.069187        -0.958815         0.362417
 C         1.890878        -1.895733         0.695764
 C         1.776522        -2.609723         2.038042
 C         2.433177        -1.680943         3.047031
 O         2.295630        -0.255454         2.801104
 C         2.511569         0.128686         1.456175
 H        -0.714089        -0.293626         1.215090
 H        -0.604652         0.530767        -0.218761
 H        -0.662673        -1.145471        -0.183526
 H         4.181481        -1.141587         0.320814
 H         1.504920        -2.398138        -0.213773
 H         0.663972        -2.778617         2.291445
 H         2.304513        -3.650951         2.094803
 H         2.200019        -1.792811         4.107989
 H         3.626764        -1.920686         3.014973
 H         2.806912         1.161859         1.245543
