19
Iteration:  1384charge 0 multiplicity 1
 C        -0.209864        -0.094328         0.273433
 C         1.229132        -0.548215         0.455055
 O         2.312555        -0.228264        -0.594691
 C         2.994653        -0.961779         0.361332
 C         1.904788        -1.919821         0.675742
 C         1.877633        -2.636617         2.073530
 C         2.562834        -1.623267         3.080689
 O         2.223118        -0.250955         2.747162
 C         2.382137         0.046956         1.417748
 H        -0.837450        -0.725844         0.955343
 H        -0.201127         0.998623         0.422337
 H        -0.452795        -0.383004        -0.756518
 H         4.012428        -1.200426         0.218753
 H         1.795179        -2.623026        -0.135898
 H         0.839077        -2.773491         2.394343
 H         2.427581        -3.600320         1.975894
 H         2.369156        -1.736022         4.211364
 H         3.778797        -1.746199         2.978372
 H         2.731464         1.092510         1.429588
