19
Iteration:   154charge 0 multiplicity 1
 C        -0.195794        -0.115558         0.325700
 C         1.297914        -0.478378         0.496910
 O         2.261350        -0.303563        -0.613370
 C         3.047677        -0.954936         0.435031
 C         1.895758        -1.965865         0.647720
 C         1.812127        -2.527537         2.000218
 C         2.508841        -1.619310         2.957351
 O         2.287046        -0.254203         2.805040
 C         2.447752         0.041933         1.416011
 H        -0.734821        -0.371840         1.249050
 H        -0.466412         0.944322         0.141308
 H        -0.661475        -0.707428        -0.434942
 H         4.107438        -1.076773         0.283289
 H         1.690175        -2.715881        -0.081918
 H         0.765815        -2.604828         2.243101
 H         2.178262        -3.604510         2.124536
 H         2.063537        -1.913151         3.917057
 H         3.690021        -1.856803         3.026212
 H         2.758419         1.057324         1.301781
