19
Iteration:  3926
 C        -0.150728        -0.224250         0.157991
 C         1.233808        -0.547912         0.460604
 O         2.170251        -0.231136        -0.628461
 C         3.041340        -0.900990         0.385448
 C         1.944656        -1.952885         0.669139
 C         1.853405        -2.516942         2.114660
 C         2.534911        -1.638781         3.061476
 O         2.388612        -0.237328         2.834507
 C         2.319104         0.067896         1.453727
 H        -0.837521        -0.739353         0.867977
 H        -0.356329         0.833448         0.301162
 H        -0.346243        -0.712643        -0.805630
 H         4.157032        -1.015180         0.236796
 H         1.659827        -2.699752        -0.100293
 H         0.785908        -2.568176         2.208074
 H         2.310226        -3.464975         2.091415
 H         2.150783        -1.871338         4.112636
 H         3.677854        -1.997259         3.077068
 H         2.473464         1.090779         1.264870
