19
Iteration:  4673
 C        -0.155429        -0.036289         0.450456
 C         1.256281        -0.538930         0.420589
 O         2.243457        -0.334488        -0.807489
 C         3.129369        -0.876145         0.391794
 C         2.015758        -1.927099         0.655757
 C         1.955929        -2.666213         1.993609
 C         2.511058        -1.660094         3.084476
 O         2.090084        -0.264921         2.784499
 C         2.330781         0.093998         1.498823
 H        -0.436397         0.050023         1.524884
 H        -0.153682         0.949341         0.055854
 H        -0.861000        -0.759026         0.071918
 H         4.290857        -0.890035         0.135269
 H         1.971802        -2.596072        -0.206939
 H         0.871774        -2.851854         2.231216
 H         2.279156        -3.746671         2.193829
 H         2.066988        -1.719891         4.100213
 H         3.686450        -1.914320         3.256944
 H         2.351063         1.184141         1.233086
