19
Iteration:   687
 C        -0.142349        -0.009658         0.400387
 C         1.236063        -0.570843         0.351439
 O         2.255417        -0.298226        -0.734023
 C         3.055461        -0.827970         0.410310
 C         2.041084        -1.945064         0.681937
 C         1.866612        -2.617825         2.055581
 C         2.469884        -1.674770         3.074992
 O         2.240504        -0.259404         2.818869
 C         2.333279        -0.034870         1.420486
 H        -0.324372         0.143974         1.479926
 H        -0.065592         1.010678        -0.032232
 H        -1.021819        -0.525487         0.064540
 H         4.096097        -1.053919         0.078935
 H         1.812748        -2.666526        -0.123170
 H         0.711298        -2.708859         2.032729
 H         2.292795        -3.743166         2.150818
 H         2.189296        -1.847034         4.137115
 H         3.693603        -1.792370         3.025847
 H         2.294585         1.062014         1.266105
