19
Iteration:  3484charge 0 multiplicity 1
 C        -0.221967        -0.234840         0.412246
 C         1.336584        -0.512123         0.396198
 O         2.239480        -0.172215        -0.703246
 C         3.142758        -0.820609         0.470837
 C         1.985920        -1.916270         0.618504
 C         1.854941        -2.591294         2.022054
 C         2.352883        -1.699400         3.110426
 O         2.281320        -0.290357         2.745578
 C         2.389728         0.048482         1.388032
 H        -0.561668        -0.219962         1.418757
 H        -0.427634         0.758833         0.051211
 H        -0.910498        -0.977149        -0.031661
 H         4.158325        -0.905986         0.173334
 H         1.939162        -2.749374        -0.109119
 H         0.821892        -2.717378         2.089599
 H         2.466520        -3.553662         2.061909
 H         1.814072        -1.872419         4.087552
 H         3.392927        -1.971409         3.419671
 H         2.819248         1.115783         1.318164
