19
Iteration:   542charge 0 multiplicity 1
 C        -0.280454        -0.124948         0.295193
 C         1.257463        -0.448284         0.562782
 O         2.369406        -0.260017        -0.635570
 C         3.016383        -0.982018         0.357827
 C         1.824092        -1.921807         0.647298
 C         1.839744        -2.535536         2.015494
 C         2.591887        -1.629914         3.117277
 O         2.243827        -0.280353         2.765210
 C         2.467463         0.016750         1.386871
 H        -0.828607        -0.730962         0.962731
 H        -0.612196         0.860599         0.481833
 H        -0.465446        -0.605042        -0.643920
 H         4.033325        -1.253373         0.257398
 H         1.469790        -2.584059        -0.166126
 H         0.841310        -2.856504         2.329422
 H         2.588091        -3.399305         1.870490
 H         2.201719        -1.693241         4.163040
 H         3.576262        -1.800605         3.161095
 H         2.721670         1.009541         1.101244
