19
Iteration:  1666charge 0 multiplicity 1
 C        -0.159432        -0.249721         0.306298
 C         1.285569        -0.426653         0.482239
 O         2.276907        -0.232021        -0.637926
 C         3.086749        -0.955517         0.368734
 C         1.848815        -1.840275         0.607929
 C         1.849464        -2.552842         1.978496
 C         2.553583        -1.676108         3.103056
 O         2.161037        -0.259775         2.825731
 C         2.463237         0.044527         1.430448
 H        -0.715503        -0.393406         1.269524
 H        -0.548035         0.772183         0.075296
 H        -0.608124        -1.069687        -0.261836
 H         4.048678        -1.339885         0.239021
 H         1.692808        -2.515826        -0.220466
 H         0.872829        -2.733039         2.396164
 H         2.417946        -3.458988         1.719969
 H         2.196138        -1.965023         4.158898
 H         3.570844        -1.783136         3.118869
 H         2.861646         1.030217         1.356141
