19
Iteration:  3239charge 0 multiplicity 1
 C        -0.115698        -0.103747         0.255414
 C         1.278318        -0.500894         0.488887
 O         2.147708        -0.197264        -0.623451
 C         3.018737        -0.849174         0.483067
 C         1.990594        -1.923529         0.664871
 C         1.962511        -2.649325         1.985342
 C         2.532754        -1.682686         3.039155
 O         2.188809        -0.342896         2.825637
 C         2.347750         0.038104         1.400203
 H        -0.852241        -0.279390         1.049912
 H        -0.355356         0.914608         0.005171
 H        -0.323259        -0.484930        -0.708533
 H         4.132354        -0.904203         0.260402
 H         1.781158        -2.637900        -0.143680
 H         1.007969        -3.012475         2.251385
 H         2.515105        -3.686556         2.131120
 H         2.287868        -1.760637         4.051264
 H         3.554253        -1.725261         2.872782
 H         2.614860         1.062572         1.379963
