19
Iteration:  3137charge 0 multiplicity 1
 C        -0.139449        -0.210498         0.291952
 C         1.285867        -0.547335         0.448243
 O         2.205433        -0.171335        -0.641071
 C         3.074574        -0.835074         0.361904
 C         2.009601        -1.920754         0.612239
 C         1.863227        -2.523769         1.959151
 C         2.438888        -1.749890         3.122244
 O         2.259741        -0.298282         2.821975
 C         2.364618         0.060153         1.481445
 H        -0.613067        -0.579210         1.162399
 H        -0.317747         0.855703         0.221981
 H        -0.809278        -0.744477        -0.417960
 H         4.136515        -0.930317         0.193679
 H         1.872506        -2.629355        -0.176655
 H         0.815942        -2.686536         2.194000
 H         2.273677        -3.603138         1.911700
 H         2.049500        -1.980460         4.184655
 H         3.699984        -1.847840         3.283257
 H         2.614294         1.177995         1.404343
