19
Iteration:  1126charge 0 multiplicity 1
 C        -0.203713        -0.198308         0.220458
 C         1.280654        -0.532603         0.496483
 O         2.184708        -0.192481        -0.690523
 C         3.098318        -0.860964         0.425014
 C         2.011550        -1.980449         0.686650
 C         1.745191        -2.553108         2.077000
 C         2.540658        -1.666903         3.018193
 O         2.354917        -0.283893         2.825158
 C         2.353100         0.025638         1.477983
 H        -0.899190        -0.182257         1.071024
 H        -0.241214         0.839830        -0.045805
 H        -0.497759        -0.759694        -0.650233
 H         4.208642        -0.909197         0.229533
 H         1.782658        -2.677218        -0.127818
 H         0.668486        -2.380010         2.181905
 H         1.976292        -3.658297         2.194941
 H         2.327037        -1.823334         4.042005
 H         3.684728        -1.938448         2.901206
 H         2.383636         1.099304         1.414293
