19
Iteration:  1579
 C        -0.247075        -0.211018         0.199080
 C         1.285214        -0.437549         0.464296
 O         2.300973        -0.191450        -0.691226
 C         3.067027        -0.903251         0.293316
 C         1.802251        -1.893227         0.727200
 C         1.878264        -2.610602         2.106523
 C         2.522606        -1.682775         3.068600
 O         2.277336        -0.322180         2.830497
 C         2.433635         0.096317         1.485959
 H        -0.688975        -0.772021         0.990333
 H        -0.381362         0.845118         0.196991
 H        -0.525896        -0.757806        -0.655947
 H         4.055305        -1.150477         0.150475
 H         1.397560        -2.534645        -0.000642
 H         0.875634        -2.895509         2.532797
 H         2.476572        -3.575529         2.039208
 H         2.143029        -1.879901         4.127206
 H         3.689872        -1.658966         3.128487
 H         2.736553         1.097142         1.305473
