19
Iteration:  4500charge 0 multiplicity 1
 C        -0.112588        -0.087248         0.420807
 C         1.269688        -0.499729         0.423056
 O         2.181693        -0.356945        -0.736228
 C         3.128225        -0.940919         0.476101
 C         1.979192        -1.940750         0.709486
 C         1.972139        -2.586165         2.024526
 C         2.460812        -1.623205         3.055845
 O         2.162921        -0.244140         2.758025
 C         2.330588         0.086392         1.386597
 H        -0.489158        -0.033352         1.479489
 H        -0.295904         0.816083        -0.224339
 H        -0.829925        -0.854630         0.025045
 H         4.203389        -1.002792         0.255252
 H         1.878146        -2.527288        -0.223510
 H         0.889151        -2.915898         2.104607
 H         2.577559        -3.445799         1.969968
 H         1.975796        -1.980155         3.993386
 H         3.579732        -1.781775         3.065367
 H         2.589430         1.229673         1.429194
