19
Iteration:   936charge 0 multiplicity 1
 C        -0.241149        -0.251595         0.217701
 C         1.268986        -0.506795         0.498967
 O         2.306039        -0.184478        -0.637891
 C         3.063955        -0.922647         0.397769
 C         1.869484        -1.946548         0.681625
 C         1.764357        -2.519946         2.034945
 C         2.527193        -1.674339         3.031165
 O         2.394656        -0.291178         2.843272
 C         2.351084         0.107094         1.439469
 H        -0.805929        -0.444469         1.098974
 H        -0.532547         0.809976         0.180319
 H        -0.393140        -0.887944        -0.640489
 H         4.069645        -1.204848         0.148016
 H         1.559987        -2.617385        -0.175036
 H         0.663681        -2.559869         2.355051
 H         2.284872        -3.428893         1.948849
 H         2.383837        -1.798205         4.115452
 H         3.459864        -2.011732         2.755049
 H         2.789894         1.123941         1.495186
