19
Iteration:  2192charge 0 multiplicity 1
 C        -0.211002        -0.194541         0.321410
 C         1.289538        -0.508843         0.521780
 O         2.277958        -0.243255        -0.665753
 C         3.113053        -0.909587         0.429417
 C         1.938882        -1.874440         0.643819
 C         1.818419        -2.548074         2.006186
 C         2.478077        -1.727438         2.998657
 O         2.227421        -0.273444         2.857850
 C         2.445563         0.098271         1.403945
 H        -0.879010        -0.652685         1.012431
 H        -0.490670         0.845204         0.347778
 H        -0.520913        -0.561734        -0.655928
 H         4.146293        -1.163240         0.051308
 H         1.726754        -2.548492        -0.180653
 H         0.792316        -2.701261         2.296086
 H         2.085188        -3.698101         1.863654
 H         2.232759        -1.912898         4.071597
 H         3.628683        -1.771124         2.956351
 H         2.658219         1.199114         1.448698
