19
Iteration:  2910charge 0 multiplicity 1
 C        -0.168170        -0.097531         0.361544
 C         1.321266        -0.516291         0.383830
 O         2.225501        -0.205569        -0.718370
 C         3.116272        -0.825386         0.358341
 C         2.117359        -1.950793         0.624046
 C         1.887955        -2.600306         2.061274
 C         2.495534        -1.689174         3.085462
 O         2.076810        -0.357194         2.890389
 C         2.364173         0.034946         1.449354
 H        -0.521109        -0.218292         1.435763
 H        -0.468056         0.970714         0.200796
 H        -0.866330        -0.483891        -0.505754
 H         4.105122        -0.902812        -0.076014
 H         1.853573        -2.644236        -0.226598
 H         0.848747        -2.784183         2.378782
 H         2.248922        -3.543339         1.909877
 H         2.233187        -2.253883         3.975390
 H         3.569213        -1.795511         3.098431
 H         2.479373         1.181694         1.355595
