19
Iteration:  1280charge 0 multiplicity 1
 C        -0.256598        -0.244916         0.267300
 C         1.269847        -0.452561         0.526128
 O         2.252358        -0.236853        -0.668420
 C         3.047816        -0.908580         0.376020
 C         1.987911        -1.912288         0.612780
 C         1.739313        -2.548787         2.010349
 C         2.482178        -1.650618         3.114159
 O         2.314331        -0.246775         2.831018
 C         2.491344         0.040248         1.449732
 H        -0.632790        -0.135382         1.286965
 H        -0.421858         0.593285        -0.393110
 H        -0.539807        -1.205762        -0.159708
 H         4.115598        -1.088929         0.024721
 H         1.845148        -2.538742        -0.323250
 H         0.602174        -2.709414         2.221055
 H         2.170843        -3.603726         2.037917
 H         2.132167        -1.841940         4.108351
 H         3.691921        -1.888326         2.986735
 H         2.762339         1.081889         1.517475
