19
Iteration:  3327
 C        -0.196962        -0.263489         0.367536
 C         1.292603        -0.581320         0.407075
 O         2.232929        -0.233814        -0.689221
 C         3.061097        -0.757953         0.439105
 C         2.049047        -1.907617         0.558574
 C         1.797809        -2.507805         1.968100
 C         2.461164        -1.706106         3.081350
 O         2.300416        -0.317359         2.860147
 C         2.376822         0.104521         1.509331
 H        -0.688464        -0.383408         1.372101
 H        -0.297581         0.740818        -0.075554
 H        -0.639620        -0.931294        -0.353177
 H         4.163979        -0.909150         0.266854
 H         1.923991        -2.521993        -0.353987
 H         0.734298        -2.485806         2.102204
 H         1.933236        -3.696357         1.854700
 H         2.027776        -1.983382         4.022288
 H         3.636699        -1.933192         3.259542
 H         2.510164         1.150930         1.382628
