19
Iteration:  2140charge 0 multiplicity 1
 C        -0.190342        -0.199017         0.247466
 C         1.245489        -0.558017         0.453332
 O         2.249468        -0.202131        -0.646398
 C         3.062012        -0.788391         0.398838
 C         2.021949        -1.949055         0.569623
 C         1.730607        -2.457113         2.050950
 C         2.527625        -1.711394         3.084535
 O         2.366043        -0.346155         2.857990
 C         2.381759        -0.027848         1.485248
 H        -0.787636        -0.341704         1.203324
 H        -0.407365         0.835177        -0.160280
 H        -0.828102        -0.694503        -0.521732
 H         4.163760        -0.712998         0.031986
 H         1.771952        -2.670416        -0.180328
 H         0.640684        -2.335816         2.236904
 H         1.941299        -3.549850         2.102941
 H         2.056485        -1.841640         4.043123
 H         3.606002        -1.897014         2.964475
 H         2.587700         1.056937         1.601165
