19
Iteration:   134charge 0 multiplicity 1
 C        -0.186031        -0.249315         0.370986
 C         1.281883        -0.447387         0.500774
 O         2.416781        -0.276985        -0.722491
 C         3.020903        -1.036052         0.349654
 C         1.754076        -1.823412         0.625418
 C         1.758817        -2.556553         2.001630
 C         2.531143        -1.648072         3.090373
 O         2.313222        -0.191536         2.844484
 C         2.396998         0.065541         1.464781
 H        -0.779193        -0.894110         1.126052
 H        -0.648894         0.744689         0.361986
 H        -0.343655        -0.453714        -0.639841
 H         4.000448        -1.484417         0.128902
 H         1.273448        -2.356257        -0.237654
 H         0.877565        -2.924770         2.395345
 H         2.450516        -3.374679         1.849446
 H         2.245230        -1.775557         4.100747
 H         3.632552        -1.875455         2.977118
 H         2.856540         1.028902         1.327760
