19
Iteration:  3835charge 0 multiplicity 1
 C        -0.152501        -0.157818         0.345468
 C         1.259349        -0.582874         0.405167
 O         2.290513        -0.205204        -0.655079
 C         3.081729        -0.949233         0.404422
 C         1.912682        -1.941922         0.608563
 C         1.897715        -2.533811         2.031354
 C         2.546792        -1.612786         3.139518
 O         2.193459        -0.268766         2.760047
 C         2.311328        -0.009241         1.423978
 H        -0.775992        -0.409098         1.272372
 H        -0.382776         0.927475         0.206775
 H        -0.792029        -0.707980        -0.373988
 H         4.119573        -1.013879         0.171545
 H         1.799222        -2.566493        -0.292189
 H         0.904841        -2.550846         2.345074
 H         2.389327        -3.433575         2.147101
 H         2.298412        -1.707685         4.257524
 H         3.728181        -1.812639         3.181079
 H         2.614584         1.097335         1.282769
