19
Iteration:  2315
 C        -0.106347        -0.185681         0.254183
 C         1.289657        -0.663205         0.411180
 O         2.218643        -0.194883        -0.601286
 C         3.047653        -0.831695         0.499384
 C         1.974173        -1.914176         0.592068
 C         1.706286        -2.511022         1.974114
 C         2.517410        -1.703149         3.036990
 O         2.381706        -0.269730         2.865812
 C         2.283805         0.046670         1.460131
 H        -0.601796        -0.096510         1.244419
 H        -0.140301         0.858177        -0.063293
 H        -0.840494        -0.715680        -0.319388
 H         4.158627        -1.011433         0.303594
 H         1.998604        -2.487834        -0.300882
 H         0.660960        -2.613557         1.878889
 H         2.084490        -3.635625         2.196083
 H         2.465054        -1.979282         4.097581
 H         3.590427        -2.059085         2.815525
 H         2.401848         1.111928         1.366921
