19
Iteration:  4724charge 0 multiplicity 1
 C        -0.207804        -0.092860         0.208271
 C         1.196433        -0.456915         0.393540
 O         2.276768        -0.217102        -0.639138
 C         2.966831        -0.918525         0.416433
 C         1.908201        -1.945354         0.670646
 C         1.968932        -2.667936         2.028998
 C         2.618363        -1.679876         3.097830
 O         2.242127        -0.280444         2.900697
 C         2.347641         0.058028         1.413491
 H        -0.779242         0.230988         1.161147
 H        -0.290632         0.812083        -0.451922
 H        -0.703516        -0.998863        -0.290170
 H         4.073263        -0.949637         0.179415
 H         1.725827        -2.516804        -0.326672
 H         0.969564        -2.991108         2.373279
 H         2.556766        -3.598585         2.223047
 H         2.219942        -2.017379         4.057037
 H         3.653843        -1.871737         3.147917
 H         2.620242         1.093988         1.179654
