19
Iteration:  2942
 C        -0.105204        -0.157875         0.363047
 C         1.279209        -0.558007         0.462317
 O         2.270202        -0.187677        -0.622824
 C         3.072444        -0.837853         0.499405
 C         1.998715        -1.981697         0.628652
 C         1.854429        -2.610883         1.991605
 C         2.465973        -1.689309         2.958648
 O         2.247080        -0.272337         2.798223
 C         2.279627         0.051461         1.416693
 H        -0.780109        -0.641066         1.150557
 H        -0.238949         0.940909         0.539177
 H        -0.652634        -0.546758        -0.609351
 H         4.117244        -0.954691         0.274054
 H         1.798648        -2.460307        -0.341212
 H         0.776852        -2.853389         2.190151
 H         2.527888        -3.495182         1.947115
 H         1.984173        -1.912127         3.961293
 H         3.696646        -1.720016         2.989300
 H         2.286659         1.201738         1.433044
