19
Iteration:  2437charge 0 multiplicity 1
 C        -0.092280        -0.080337         0.289248
 C         1.266652        -0.572109         0.433836
 O         2.201387        -0.291031        -0.693070
 C         3.098662        -0.696577         0.350603
 C         2.024235        -1.838718         0.647898
 C         1.781290        -2.556033         2.068103
 C         2.551709        -1.742450         3.106229
 O         2.259545        -0.433630         2.874501
 C         2.277743         0.049034         1.411665
 H        -0.874624        -0.090120         1.011261
 H         0.002557         0.934890        -0.030638
 H        -0.607195        -0.607325        -0.483468
 H         4.122153        -0.944296         0.206374
 H         1.865199        -2.634275        -0.030755
 H         0.747324        -2.577051         2.351916
 H         2.238848        -3.565128         1.963614
 H         2.309538        -1.894781         4.162838
 H         3.661389        -2.079400         2.916422
 H         2.197148         1.082853         1.523164
