19
Iteration:  2614
 C        -0.181242        -0.109953         0.207466
 C         1.278574        -0.579222         0.437988
 O         2.212306        -0.203766        -0.594495
 C         3.061861        -0.849156         0.423948
 C         2.038150        -1.969969         0.584240
 C         1.823930        -2.513964         1.994603
 C         2.523885        -1.789343         3.063336
 O         2.299022        -0.279661         2.832562
 C         2.285765         0.058351         1.508357
 H        -0.725225        -0.204226         1.095046
 H        -0.355714         0.938373        -0.022402
 H        -0.718741        -0.547561        -0.647648
 H         4.113697        -0.954858         0.348075
 H         1.961172        -2.620823        -0.322997
 H         0.736648        -2.724192         2.380850
 H         2.267105        -3.566236         2.306252
 H         2.420358        -2.058979         4.157756
 H         3.614885        -1.884159         2.956078
 H         2.466784         1.185121         1.485090
