19
Iteration:  2818charge 0 multiplicity 1
 C        -0.143822        -0.229766         0.206548
 C         1.236043        -0.535553         0.491031
 O         2.197722        -0.184650        -0.589801
 C         3.081368        -0.770272         0.432725
 C         2.042289        -1.923140         0.636808
 C         1.701360        -2.559037         2.010282
 C         2.599090        -1.734847         3.006879
 O         2.312004        -0.359062         2.850267
 C         2.302305         0.070216         1.473177
 H        -0.805662        -0.258329         1.073194
 H        -0.277932         0.797743        -0.203933
 H        -0.386590        -0.796766        -0.655690
 H         4.184301        -0.786482         0.207556
 H         2.120836        -2.537976        -0.245704
 H         0.661416        -2.457397         2.238038
 H         1.929201        -3.651813         2.077754
 H         2.421934        -1.739011         4.094786
 H         3.650395        -2.019636         2.926506
 H         2.454924         1.124720         1.421066
