19
Iteration:  2340charge 0 multiplicity 1
 C        -0.166523        -0.156917         0.296763
 C         1.295442        -0.592592         0.494266
 O         2.248655        -0.247632        -0.689406
 C         3.133448        -0.776065         0.433692
 C         1.963149        -1.915128         0.684453
 C         1.740276        -2.562732         2.007398
 C         2.511977        -1.752761         3.039090
 O         2.319256        -0.321317         2.815716
 C         2.340421         0.095587         1.421236
 H        -0.870284        -0.303143         1.173469
 H        -0.242892         0.956056         0.161480
 H        -0.778857        -0.632970        -0.521379
 H         4.135317        -0.573907         0.215466
 H         1.994417        -2.553369        -0.211660
 H         0.639506        -2.476789         2.112558
 H         2.013671        -3.742724         2.113531
 H         2.057755        -1.987590         4.015579
 H         3.583019        -2.018638         3.153272
 H         2.502864         1.149038         1.427408
