19
Iteration:  3346charge 0 multiplicity 1
 C        -0.268938        -0.331030         0.176707
 C         1.260673        -0.482629         0.372910
 O         2.288056        -0.088408        -0.602781
 C         3.095112        -0.859989         0.481088
 C         1.969012        -1.905127         0.612678
 C         1.741458        -2.489687         2.025792
 C         2.508501        -1.745378         3.035987
 O         2.439332        -0.284128         2.870936
 C         2.279046         0.004369         1.462873
 H        -0.525105        -0.635519         1.234709
 H        -0.569530         0.733282         0.077307
 H        -0.839428        -1.157644        -0.348903
 H         4.189816        -0.950459         0.252993
 H         1.909864        -2.625763        -0.198438
 H         0.626753        -2.503986         2.218741
 H         2.186721        -3.520817         2.039916
 H         2.232326        -1.915992         4.129721
 H         3.637355        -2.024223         3.172730
 H         2.434647         1.073240         1.298200
