19
Iteration:  3645
 C        -0.202819        -0.116346         0.282766
 C         1.276429        -0.496030         0.435549
 O         2.218927        -0.293790        -0.646948
 C         3.068292        -0.874405         0.378824
 C         1.922595        -1.946672         0.696127
 C         1.919171        -2.677950         2.005099
 C         2.463265        -1.682281         3.075749
 O         2.236071        -0.193642         2.840848
 C         2.414819         0.063561         1.466748
 H        -0.986195        -0.793072         0.624591
 H        -0.360182         0.879849         0.781628
 H        -0.346431        -0.211465        -0.831734
 H         4.174903        -1.018121         0.238313
 H         1.858349        -2.592292        -0.225982
 H         0.957033        -3.042852         2.125034
 H         2.679719        -3.371116         2.016498
 H         2.155801        -1.802142         4.093719
 H         3.612006        -1.789415         2.967333
 H         2.562742         1.091007         1.206830
