19
Iteration:  4050
 C        -0.300621        -0.338653         0.296549
 C         1.259284        -0.542069         0.430799
 O         2.250114        -0.217335        -0.652982
 C         3.071405        -0.860278         0.355269
 C         2.009154        -1.921123         0.650937
 C         1.763916        -2.464894         2.027766
 C         2.391242        -1.593028         3.149073
 O         2.465419        -0.261443         2.797411
 C         2.419305         0.044299         1.445206
 H        -0.685459        -0.520263         1.281851
 H        -0.596559         0.608888        -0.141947
 H        -0.707067        -1.053098        -0.418505
 H         4.070946        -1.279708         0.218544
 H         1.890265        -2.422675        -0.319195
 H         0.715379        -2.618463         2.160232
 H         2.397621        -3.390487         2.120226
 H         2.017669        -1.815926         4.116728
 H         3.488132        -2.099612         3.220240
 H         2.537247         1.156383         1.367714
