19
Iteration:  4952charge 0 multiplicity 1
 C        -0.174815        -0.306704         0.142806
 C         1.241333        -0.661679         0.439650
 O         2.243723        -0.144003        -0.566854
 C         3.035334        -0.747974         0.483950
 C         2.015905        -1.852775         0.585068
 C         1.666540        -2.420343         2.066647
 C         2.629250        -1.745697         3.030504
 O         2.444066        -0.326292         2.786912
 C         2.262705         0.016894         1.516145
 H        -0.512805         0.355974         0.983876
 H        -0.288307         0.374592        -0.654860
 H        -0.872134        -1.144665         0.040484
 H         4.121193        -0.937146         0.423223
 H         1.817526        -2.580416        -0.285544
 H         0.484329        -2.569039         2.252243
 H         1.853382        -3.519744         2.189981
 H         2.218967        -1.896341         4.136604
 H         3.574916        -2.249725         2.950980
 H         2.425950         1.103714         1.450745
