19
Iteration:  1884
 C        -0.167605        -0.121427         0.274069
 C         1.296885        -0.458043         0.519984
 O         2.293803        -0.249901        -0.685937
 C         3.023323        -0.954615         0.384644
 C         1.914944        -1.876464         0.732269
 C         1.916181        -2.651095         2.014759
 C         2.558708        -1.637392         3.035506
 O         2.125078        -0.305418         2.801003
 C         2.410789         0.103295         1.479611
 H        -0.786591        -0.199979         1.192028
 H        -0.258175         0.958478        -0.035855
 H        -0.743184        -0.640158        -0.517851
 H         3.968536        -1.335958         0.037407
 H         1.619174        -2.600958        -0.080263
 H         0.929592        -3.241664         2.357632
 H         2.584731        -3.552541         1.831421
 H         2.222475        -1.976525         4.091770
 H         3.581100        -1.793787         2.789111
 H         2.673386         1.209755         1.390830
