19
Iteration:  3235charge 0 multiplicity 1
 C        -0.124590        -0.112294         0.237236
 C         1.251514        -0.498665         0.515415
 O         2.128385        -0.196565        -0.628952
 C         3.070863        -0.837991         0.510407
 C         1.997355        -1.946584         0.665189
 C         1.950927        -2.606596         1.980672
 C         2.547589        -1.677525         3.031193
 O         2.191276        -0.344640         2.803042
 C         2.361931         0.023102         1.435406
 H        -0.875407        -0.356390         0.968071
 H        -0.238602         0.984941        -0.011872
 H        -0.368407        -0.551897        -0.810127
 H         4.053738        -0.868883         0.123688
 H         1.760237        -2.616649        -0.136567
 H         0.910536        -2.942133         2.242137
 H         2.415470        -3.601856         2.158673
 H         2.308393        -1.904198         4.168964
 H         3.670830        -1.964551         2.859544
 H         2.509432         1.148885         1.335229
