19
Iteration:  2595charge 0 multiplicity 1
 C        -0.098596        -0.170848         0.266420
 C         1.319953        -0.484248         0.536001
 O         2.201894        -0.222075        -0.663501
 C         3.076925        -0.865877         0.365487
 C         1.894881        -1.861924         0.705659
 C         1.877066        -2.631913         1.972299
 C         2.533416        -1.679099         3.027406
 O         2.164356        -0.332277         2.877118
 C         2.392253         0.038315         1.462773
 H        -0.875380        -0.542639         0.965882
 H        -0.232150         0.931187         0.063993
 H        -0.248770        -0.603546        -0.726148
 H         4.114967        -0.914733         0.025413
 H         1.604485        -2.428001        -0.222897
 H         0.878564        -2.896425         2.155985
 H         2.410285        -3.680088         1.835711
 H         2.157502        -1.698537         4.069437
 H         3.671063        -1.778289         3.233798
 H         2.637409         1.135586         1.339494
