19
Iteration:   788charge 0 multiplicity 1
 C        -0.116283        -0.158138         0.205661
 C         1.235618        -0.591947         0.479046
 O         2.225741        -0.290476        -0.677953
 C         3.022319        -0.792061         0.369904
 C         1.965912        -1.948170         0.668916
 C         1.697597        -2.566149         2.108126
 C         2.538996        -1.688226         3.007211
 O         2.417055        -0.247350         2.887027
 C         2.311317         0.069804         1.505794
 H        -0.771103        -0.758862         0.841842
 H        -0.217064         0.899513         0.349484
 H        -0.518546        -0.247875        -0.745282
 H         4.118308        -0.891387         0.015727
 H         1.994646        -2.603305        -0.200254
 H         0.581352        -2.584651         2.253444
 H         1.852362        -3.690951         2.226317
 H         2.514905        -1.948554         4.032393
 H         3.576441        -1.779894         2.644489
 H         2.653462         1.098068         1.291963
