19
Iteration:   411charge 0 multiplicity 1
 C        -0.053461        -0.180477         0.229312
 C         1.285319        -0.592149         0.415747
 O         2.156636        -0.200282        -0.692854
 C         3.064958        -0.856700         0.419226
 C         1.893122        -1.947817         0.671069
 C         1.713750        -2.492923         2.143162
 C         2.576905        -1.723949         3.053958
 O         2.376664        -0.331400         2.862582
 C         2.315762         0.109366         1.375902
 H        -0.472807         0.027575         1.190561
 H        -0.022715         0.782300        -0.334836
 H        -0.862182        -0.809724        -0.234431
 H         4.153772        -0.912514         0.298513
 H         1.927780        -2.780617        -0.095190
 H         0.624096        -2.474438         2.444125
 H         2.003236        -3.577741         2.047065
 H         2.325558        -1.894174         4.154736
 H         3.712260        -2.046650         2.928255
 H         2.455104         1.196883         1.368246
