19
Iteration:  3587charge 0 multiplicity 1
 C        -0.123967        -0.079922         0.225358
 C         1.283199        -0.529709         0.461850
 O         2.241926        -0.260643        -0.557569
 C         3.024145        -0.948160         0.458625
 C         1.968393        -2.037476         0.631247
 C         1.891676        -2.652804         2.023172
 C         2.627023        -1.615024         2.889818
 O         2.183137        -0.238433         2.870601
 C         2.241337         0.095907         1.502309
 H        -0.830328        -0.169196         1.079705
 H        -0.185556         0.948031        -0.146765
 H        -0.551787        -0.454836        -0.673306
 H         4.145690        -1.048125         0.358865
 H         1.837788        -2.647600        -0.255601
 H         0.920458        -2.809309         2.151631
 H         2.260956        -3.575764         2.285498
 H         2.512858        -1.899684         4.005477
 H         3.716685        -1.521174         2.657710
 H         2.359706         1.154530         1.411327
