19
Iteration:  4979
 C        -0.203872        -0.301135         0.175845
 C         1.284641        -0.478419         0.464076
 O         2.216057        -0.212994        -0.606109
 C         3.076369        -0.803802         0.360042
 C         1.999466        -1.867183         0.646156
 C         1.743512        -2.568314         1.996345
 C         2.539645        -1.792839         3.037813
 O         2.361467        -0.268528         2.941709
 C         2.357119         0.147491         1.488686
 H        -0.693710         0.469267         0.745057
 H        -0.490308         0.028814        -0.878714
 H        -0.703007        -1.256090         0.391228
 H         4.136253        -0.983534         0.099184
 H         1.713529        -2.476598        -0.184706
 H         0.670409        -2.716505         2.060962
 H         2.033085        -3.631483         2.144029
 H         2.155660        -1.982625         3.996427
 H         3.632926        -2.179055         2.932451
 H         2.681040         1.198845         1.489436
