19
Iteration:  3138
 C        -0.134531        -0.220718         0.289277
 C         1.296837        -0.547766         0.444919
 O         2.200416        -0.172249        -0.641125
 C         3.074177        -0.836085         0.364724
 C         1.999074        -1.911006         0.614550
 C         1.857475        -2.518685         1.960213
 C         2.438301        -1.749109         3.121105
 O         2.261899        -0.298807         2.834126
 C         2.368006         0.058229         1.477610
 H        -0.606784        -0.564774         1.165365
 H        -0.337895         0.829620         0.213110
 H        -0.788249        -0.730684        -0.441822
 H         4.132684        -0.920339         0.134655
 H         1.872802        -2.609075        -0.176257
 H         0.820845        -2.707864         2.149463
 H         2.252625        -3.620070         1.924142
 H         2.071835        -1.973700         4.155742
 H         3.723585        -1.827580         3.274756
 H         2.602258         1.155524         1.427174
