19
Iteration:  4331
 C        -0.130107        -0.046849         0.205154
 C         1.212856        -0.509786         0.484309
 O         2.256324        -0.357707        -0.672687
 C         2.981791        -0.944134         0.349651
 C         1.895288        -1.938084         0.722771
 C         1.976985        -2.626919         2.056502
 C         2.619374        -1.630888         3.160291
 O         2.196199        -0.251657         2.739004
 C         2.286099         0.073451         1.471761
 H        -0.868880        -0.503836         0.818166
 H        -0.386304         0.993705         0.332275
 H        -0.437382        -0.276199        -0.786496
 H         4.146537        -1.064934         0.362885
 H         1.630764        -2.690220        -0.063229
 H         0.966947        -2.865086         2.411623
 H         2.704011        -3.426716         2.012913
 H         2.416868        -1.758873         4.253788
 H         3.729993        -1.494538         2.993361
 H         2.676442         1.098516         1.380393
