19
Iteration:  3155charge 0 multiplicity 1
 C        -0.135598        -0.324176         0.275401
 C         1.286282        -0.453664         0.500433
 O         2.205857        -0.169812        -0.676172
 C         3.119174        -0.823542         0.358088
 C         1.965268        -1.894426         0.593592
 C         1.734475        -2.571748         1.982494
 C         2.496705        -1.676428         3.019976
 O         2.303403        -0.302987         2.933070
 C         2.377934         0.066409         1.523380
 H        -0.825548        -0.816972         1.075325
 H        -0.285892         0.766438         0.014056
 H        -0.241488        -1.050748        -0.565758
 H         4.225386        -1.019372         0.130235
 H         1.665284        -2.511534        -0.323171
 H         0.640259        -2.572025         2.388390
 H         2.279668        -3.444867         1.995139
 H         2.200204        -1.986813         4.061305
 H         3.444389        -2.028988         2.898053
 H         2.552835         1.156788         1.365310
