19
Iteration:  2862charge 0 multiplicity 1
 C        -0.241292        -0.186656         0.200819
 C         1.240587        -0.474746         0.447601
 O         2.293783        -0.156502        -0.603917
 C         3.017073        -0.877980         0.497441
 C         1.950360        -1.949982         0.597199
 C         1.898681        -2.632754         1.975376
 C         2.509515        -1.698147         3.043641
 O         2.321456        -0.265764         2.841215
 C         2.330121         0.055906         1.530247
 H        -0.795158        -0.017134         1.108760
 H        -0.540394         0.707462        -0.385962
 H        -0.752542        -0.910834        -0.389789
 H         4.097114        -1.039680         0.331615
 H         1.751586        -2.569630        -0.231407
 H         0.863405        -2.947045         2.080328
 H         2.478594        -3.601594         1.943147
 H         2.300765        -2.063684         4.054020
 H         3.648767        -1.924313         2.881402
 H         2.579390         1.090389         1.493640
