19
Iteration:  2411charge 0 multiplicity 1
 C        -0.154322        -0.007764         0.290584
 C         1.254396        -0.497544         0.393093
 O         2.226615        -0.263207        -0.633215
 C         3.051245        -0.838324         0.459259
 C         2.020030        -1.983942         0.644276
 C         1.935581        -2.663449         2.037470
 C         2.506324        -1.705400         3.029657
 O         2.254738        -0.318510         2.825844
 C         2.292479         0.059976         1.392485
 H        -0.798227        -0.406014         1.092794
 H        -0.254282         1.087629         0.366470
 H        -0.730535        -0.340884        -0.597686
 H         4.200665        -0.899061         0.414941
 H         1.693881        -2.724956        -0.100236
 H         0.757918        -2.705514         2.367597
 H         2.309535        -3.641918         2.150273
 H         2.101512        -1.991655         4.007500
 H         3.599197        -1.821279         3.076715
 H         2.485656         1.174419         1.358621
