19
Iteration:  4552
 C        -0.135857        -0.150938         0.147441
 C         1.232189        -0.568482         0.444877
 O         2.201588        -0.265214        -0.598949
 C         2.965727        -0.916291         0.479937
 C         1.904328        -2.026400         0.609439
 C         1.830206        -2.516720         2.079381
 C         2.725750        -1.628141         3.064487
 O         2.256220        -0.209825         2.837325
 C         2.359047         0.053750         1.473286
 H        -0.893266        -0.582893         0.800981
 H        -0.161144         0.901733         0.224998
 H        -0.570485        -0.460630        -0.782913
 H         4.083842        -1.039013         0.143811
 H         1.810814        -2.615513        -0.325543
 H         0.739185        -2.709801         2.360543
 H         2.182735        -3.631662         2.081048
 H         2.631732        -1.920907         4.094952
 H         3.773477        -1.701819         2.802924
 H         2.432262         1.189413         1.390088
