19
Iteration:   962charge 0 multiplicity 1
 C        -0.173847        -0.237110         0.171696
 C         1.299898        -0.412944         0.467596
 O         2.229196        -0.215982        -0.613864
 C         3.008347        -0.944204         0.450982
 C         1.824380        -1.869400         0.637699
 C         1.753877        -2.577717         2.040655
 C         2.655410        -1.651803         3.132234
 O         2.305189        -0.291302         2.797187
 C         2.409369         0.031486         1.438935
 H        -0.677353        -0.882807         1.000200
 H        -0.617549         0.743438         0.416475
 H        -0.295699        -0.663636        -0.855066
 H         4.098076        -1.115773         0.116984
 H         1.515106        -2.424528        -0.266562
 H         0.785359        -2.546000         2.394379
 H         2.095054        -3.663323         1.831068
 H         2.520054        -1.708045         4.192213
 H         3.713492        -1.887514         2.949935
 H         2.915794         0.998268         1.397182
