19
Iteration:  4028
 C        -0.140365        -0.248944         0.337427
 C         1.280945        -0.492697         0.470507
 O         2.236252        -0.300472        -0.725585
 C         3.091457        -0.797409         0.455534
 C         1.863901        -1.939711         0.717640
 C         1.873801        -2.638778         2.052276
 C         2.470648        -1.685945         3.113392
 O         2.331227        -0.225620         2.758516
 C         2.335398         0.137576         1.359215
 H        -0.594231        -0.124676         1.290443
 H        -0.328323         0.567246        -0.349225
 H        -0.686164        -0.977198        -0.232263
 H         4.188377        -0.825588         0.271461
 H         1.682001        -2.360931        -0.288246
 H         0.802445        -2.683057         2.199090
 H         2.321502        -3.669168         2.093374
 H         1.989691        -1.931297         4.042416
 H         3.624653        -2.027048         3.277400
 H         2.546744         1.230572         1.279216
