19
Iteration:  4770charge 0 multiplicity 1
 C        -0.170170        -0.248244         0.152115
 C         1.271229        -0.546141         0.512697
 O         2.202524        -0.151361        -0.591999
 C         3.019453        -0.811682         0.419777
 C         2.008718        -2.017548         0.655545
 C         1.666865        -2.509005         2.061667
 C         2.598442        -1.716981         3.008340
 O         2.410457        -0.241956         2.799522
 C         2.317755         0.049014         1.535358
 H        -0.811969        -0.734583         0.996257
 H        -0.520348         0.811887         0.046115
 H        -0.275479        -0.927378        -0.741050
 H         4.187838        -0.926726         0.284612
 H         2.007254        -2.691680        -0.262513
 H         0.649265        -2.377991         2.256090
 H         1.658928        -3.680957         2.074333
 H         2.559770        -2.058059         4.039137
 H         3.573666        -1.835904         2.638802
 H         2.552079         1.117494         1.392956
