19
Iteration:  2450charge 0 multiplicity 1
 C        -0.160795        -0.129803         0.221035
 C         1.286603        -0.529726         0.503515
 O         2.197528        -0.224800        -0.657061
 C         3.093599        -0.835271         0.418148
 C         1.983393        -1.964966         0.666955
 C         1.802162        -2.519130         1.994889
 C         2.552110        -1.756438         3.013654
 O         2.278694        -0.327448         2.855608
 C         2.311276         0.064332         1.507178
 H        -0.547289        -0.138039         1.228845
 H        -0.178773         0.875965        -0.221605
 H        -0.595105        -0.853238        -0.510286
 H         4.116712        -0.715877         0.167151
 H         1.817344        -2.500967        -0.285116
 H         0.799956        -2.509848         2.185884
 H         2.021300        -3.656744         2.136331
 H         2.246352        -2.131153         4.032867
 H         3.680719        -1.846852         2.942763
 H         2.531048         1.151466         1.430190
