19
Iteration:  1524charge 0 multiplicity 1
 C        -0.114375         0.028901         0.300081
 C         1.224530        -0.634981         0.353535
 O         2.240758        -0.277611        -0.693084
 C         3.038195        -0.802180         0.386302
 C         2.042772        -2.042063         0.624290
 C         1.831884        -2.587885         2.134353
 C         2.591514        -1.669202         3.102323
 O         2.240761        -0.301548         2.829633
 C         2.195599         0.015422         1.449775
 H        -0.573139         0.052839         1.306356
 H        -0.014500         1.085898         0.031689
 H        -0.677897        -0.504025        -0.440685
 H         4.075507        -0.865481         0.250765
 H         2.046810        -2.733987        -0.170381
 H         0.692888        -2.683575         2.281466
 H         2.361702        -3.611743         2.143605
 H         2.530738        -1.833940         4.233474
 H         3.779043        -1.641376         2.892558
 H         2.280871         1.087375         1.261018
