19
Iteration:  3356
 C        -0.232525        -0.372413         0.201138
 C         1.254211        -0.559763         0.421603
 O         2.334179        -0.062203        -0.581565
 C         3.006498        -0.814277         0.441878
 C         1.929775        -1.910219         0.581782
 C         1.705506        -2.513820         2.056595
 C         2.557723        -1.686276         3.076358
 O         2.451270        -0.304527         2.817941
 C         2.325861         0.042397         1.512475
 H        -0.817863        -0.597763         1.116842
 H        -0.567314         0.622457        -0.161224
 H        -0.490738        -0.947768        -0.749566
 H         4.094361        -1.005998         0.381478
 H         1.695037        -2.591573        -0.229247
 H         0.636978        -2.760450         2.343333
 H         2.074169        -3.497420         1.942352
 H         2.190035        -1.924497         4.129043
 H         3.522979        -1.988697         2.780927
 H         2.474766         1.130043         1.352318
