19
Iteration:  1180
 C        -0.225755        -0.068008         0.202286
 C         1.256234        -0.469248         0.495310
 O         2.252188        -0.318569        -0.644482
 C         3.032160        -0.880397         0.397811
 C         1.893607        -1.955995         0.687156
 C         1.877422        -2.621968         2.068064
 C         2.612860        -1.664959         3.036169
 O         2.245531        -0.259750         2.839832
 C         2.378353         0.088121         1.437072
 H        -0.798546        -0.835913         0.715220
 H        -0.403842         0.945436         0.442962
 H        -0.403328        -0.159066        -0.852571
 H         4.110437        -1.147541         0.239681
 H         1.797245        -2.738738        -0.096293
 H         0.867914        -3.047405         2.350533
 H         2.379838        -3.616096         1.972815
 H         2.292246        -1.807373         4.016038
 H         3.640257        -1.837809         3.039792
 H         2.586746         1.158765         1.347545
