19
Iteration:  4899
 C        -0.115212        -0.135174         0.285685
 C         1.335530        -0.469309         0.482917
 O         2.232429        -0.279266        -0.651692
 C         3.072698        -0.879800         0.470041
 C         1.886202        -1.876903         0.727372
 C         1.921795        -2.617751         2.024964
 C         2.537688        -1.695242         2.964186
 O         2.187735        -0.267134         2.801696
 C         2.318557         0.083384         1.462738
 H        -0.714651        -0.625286         1.105361
 H        -0.333196         0.886815         0.055868
 H        -0.464950        -0.693644        -0.596996
 H         4.085055        -1.172913         0.085497
 H         1.531799        -2.616966        -0.067262
 H         0.808160        -2.870558         2.239348
 H         2.564704        -3.455172         1.728632
 H         2.178929        -1.915076         3.931675
 H         3.650276        -2.054920         3.034923
 H         2.416502         1.143881         1.257945
