19
Iteration:  3564charge 0 multiplicity 1
 C        -0.188335        -0.224994         0.209234
 C         1.247305        -0.566302         0.455767
 O         2.297783        -0.232029        -0.644590
 C         3.082595        -0.809108         0.453545
 C         1.882168        -1.870101         0.670940
 C         1.804597        -2.512429         2.016218
 C         2.609847        -1.710352         3.024444
 O         2.275620        -0.318932         2.871959
 C         2.305163         0.042778         1.438711
 H        -0.666585         0.007075         1.174687
 H        -0.296666         0.645234        -0.402363
 H        -0.810808        -0.842569        -0.388978
 H         4.156337        -0.998530         0.474383
 H         1.800994        -2.538667        -0.162806
 H         0.864613        -2.783659         2.204196
 H         2.250797        -3.462922         2.024196
 H         2.251270        -1.886108         4.106863
 H         3.721967        -1.831677         2.970326
 H         2.567382         1.101916         1.322469
