19
Iteration:  2029
 C        -0.184219        -0.031560         0.354630
 C         1.260645        -0.554967         0.457269
 O         2.230401        -0.342485        -0.691625
 C         3.054623        -0.770282         0.453003
 C         2.089712        -2.009441         0.600142
 C         1.827959        -2.594852         2.046213
 C         2.480080        -1.668478         3.027731
 O         2.263844        -0.288789         2.819495
 C         2.333785         0.049947         1.443780
 H        -0.670719        -0.363445         1.294114
 H        -0.051709         1.052823         0.373996
 H        -0.681404        -0.299634        -0.627185
 H         4.147941        -0.846271         0.180697
 H         2.051512        -2.576501        -0.281706
 H         0.683617        -2.727165         2.032732
 H         2.053672        -3.601277         2.170798
 H         2.161740        -2.012685         4.001395
 H         3.572861        -1.933349         2.927403
 H         2.407334         1.147885         1.472754
