19
Iteration:  4620charge 0 multiplicity 1
 C        -0.242375        -0.355217         0.259992
 C         1.245922        -0.529811         0.552770
 O         2.255442        -0.195920        -0.596802
 C         3.093033        -0.960686         0.313069
 C         1.953625        -1.927231         0.586095
 C         1.755614        -2.424847         1.975632
 C         2.488301        -1.630330         3.088021
 O         2.404837        -0.217198         2.843881
 C         2.372448         0.077704         1.498132
 H        -0.753395        -1.013646         0.932277
 H        -0.512089         0.688049         0.276884
 H        -0.401892        -0.799059        -0.703887
 H         4.148904        -1.131018         0.094229
 H         1.786798        -2.669800        -0.182593
 H         0.599472        -2.533962         2.178405
 H         2.102665        -3.457021         2.070034
 H         2.212915        -1.754488         4.152296
 H         3.472937        -2.000803         2.960562
 H         2.718745         1.084342         1.174080
