19
Iteration:  3393
 C        -0.160272        -0.189405         0.088021
 C         1.216454        -0.464758         0.414573
 O         2.165875        -0.261862        -0.616609
 C         3.027092        -0.842231         0.449115
 C         1.954170        -1.882609         0.690960
 C         1.809091        -2.522840         2.023486
 C         2.629468        -1.737400         3.064533
 O         2.314040        -0.350512         2.884728
 C         2.324456         0.100319         1.536183
 H        -0.872894        -0.856943         0.632516
 H        -0.395344         0.884108         0.117318
 H        -0.266652        -0.597498        -0.905919
 H         4.104661        -0.972143         0.179342
 H         1.912508        -2.593069        -0.166218
 H         0.766984        -2.548372         2.233821
 H         2.308020        -3.598472         2.088610
 H         2.726086        -1.869076         4.073700
 H         3.770035        -1.909673         2.787489
 H         2.589203         1.116408         1.659149
