19
Iteration:  1502charge 0 multiplicity 1
 C        -0.184839        -0.105364         0.292123
 C         1.267419        -0.591446         0.426707
 O         2.169373        -0.239748        -0.646398
 C         3.112555        -0.869843         0.491488
 C         2.000935        -1.944912         0.687099
 C         1.819630        -2.537417         2.046438
 C         2.559073        -1.707085         3.034244
 O         2.255790        -0.337563         2.740141
 C         2.343378         0.094806         1.413368
 H        -0.583586         0.066412         1.298426
 H         0.006381         0.831314        -0.238466
 H        -0.692801        -0.821193        -0.311468
 H         4.144637        -0.998125         0.297364
 H         1.965444        -2.619808        -0.120765
 H         0.767924        -2.478683         2.486582
 H         2.231355        -3.623688         2.142184
 H         2.123073        -1.731770         4.085124
 H         3.686723        -1.800826         3.237093
 H         2.460142         1.132865         1.106986
