19
Iteration:  2600
 C        -0.097793        -0.153462         0.237283
 C         1.273652        -0.488277         0.533086
 O         2.194643        -0.227553        -0.655619
 C         3.059117        -0.841466         0.383286
 C         1.933862        -1.897296         0.661837
 C         1.883233        -2.614125         2.000753
 C         2.527678        -1.669221         3.039997
 O         2.193145        -0.341397         2.882596
 C         2.392560         0.054587         1.474110
 H        -0.803141        -0.549676         0.990199
 H        -0.038834         0.929580         0.117997
 H        -0.328652        -0.720993        -0.691385
 H         4.094928        -0.984171        -0.002738
 H         1.744689        -2.570459        -0.168282
 H         0.745609        -2.743699         2.116893
 H         2.353582        -3.529703         1.836591
 H         2.091768        -1.918727         4.022044
 H         3.605460        -1.809479         3.005255
 H         2.591788         1.101443         1.369850
