19
Iteration:  3750
 C        -0.251480        -0.157832         0.187316
 C         1.293632        -0.588256         0.426981
 O         2.286654        -0.170370        -0.633301
 C         3.022263        -0.941811         0.358987
 C         1.895290        -1.967170         0.642856
 C         1.851194        -2.540558         2.030266
 C         2.596790        -1.641008         3.054667
 O         2.298170        -0.235386         2.924542
 C         2.300808         0.038994         1.512640
 H        -0.635054         0.014312         1.212077
 H        -0.266582         0.650497        -0.532501
 H        -0.758299        -0.941592        -0.347322
 H         4.111748        -0.935683         0.102799
 H         1.809019        -2.646692        -0.202393
 H         0.788267        -2.873542         2.389299
 H         2.332453        -3.602065         2.103129
 H         2.389763        -2.092076         4.105423
 H         3.651198        -1.768283         2.859575
 H         2.650643         1.053578         1.276134
