19
Iteration:  4571charge 0 multiplicity 1
 C        -0.237905        -0.197820         0.108547
 C         1.191717        -0.553254         0.470574
 O         2.214947        -0.301426        -0.633875
 C         3.061076        -0.785245         0.459629
 C         1.960825        -1.958596         0.741715
 C         1.774392        -2.516913         2.089058
 C         2.613855        -1.670062         2.993298
 O         2.445486        -0.269023         2.847290
 C         2.286438         0.063220         1.467759
 H        -0.968745        -0.836254         0.635266
 H        -0.287985         0.891047         0.183239
 H        -0.306302        -0.387411        -0.991021
 H         4.164902        -0.899274         0.318958
 H         1.700597        -2.605938        -0.132778
 H         0.810798        -2.446949         2.548528
 H         2.091333        -3.602829         2.175943
 H         2.335502        -1.937837         4.016845
 H         3.733012        -1.950400         2.776197
 H         2.292205         1.115900         1.277810
