19
Iteration:   795charge 0 multiplicity 1
 C        -0.135352        -0.156155         0.217578
 C         1.269700        -0.632095         0.459987
 O         2.184806        -0.317901        -0.691468
 C         3.075637        -0.770298         0.354126
 C         1.980189        -1.927582         0.642607
 C         1.708794        -2.521003         2.093236
 C         2.547822        -1.695956         3.009050
 O         2.389824        -0.269837         2.906575
 C         2.291639         0.049148         1.475072
 H        -0.860930        -0.405026         1.044315
 H         0.072381         0.902139         0.574566
 H        -0.450359        -0.210656        -0.872537
 H         4.163782        -0.787668         0.360726
 H         1.728420        -2.786684        -0.044782
 H         0.667256        -2.414625         2.267391
 H         2.083638        -3.580580         2.146377
 H         2.402558        -1.881773         4.103677
 H         3.586821        -1.943876         2.755861
 H         2.484750         1.143519         1.387010
