19
Iteration:  1368charge 0 multiplicity 1
 C        -0.138003        -0.163317         0.221954
 C         1.341755        -0.391986         0.468550
 O         2.263797        -0.185333        -0.674252
 C         3.060904        -1.005401         0.434199
 C         1.752646        -1.952387         0.680679
 C         1.897708        -2.572867         2.115177
 C         2.587463        -1.612196         3.014612
 O         2.172564        -0.281795         2.840958
 C         2.414222         0.005988         1.430079
 H        -0.682915        -0.693474         1.013238
 H        -0.508923         0.869277         0.240677
 H        -0.671229        -0.592012        -0.641437
 H         4.120797        -1.222789         0.077654
 H         1.310090        -2.684187        -0.047187
 H         0.984782        -3.143018         2.425990
 H         2.661523        -3.413775         2.018824
 H         2.407532        -1.926115         4.022947
 H         3.602971        -1.654025         2.843824
 H         2.724251         1.035914         1.182774
