19
Iteration:  3244
 C        -0.125876        -0.088967         0.275222
 C         1.289469        -0.496504         0.467785
 O         2.186673        -0.204158        -0.623082
 C         3.013434        -0.871868         0.414187
 C         1.966611        -1.921406         0.658589
 C         1.980127        -2.707303         2.018276
 C         2.518330        -1.687275         3.033171
 O         2.181111        -0.320956         2.830682
 C         2.314548         0.067265         1.422513
 H        -0.797736        -0.351065         1.112021
 H        -0.289617         1.018269         0.093482
 H        -0.446864        -0.636314        -0.688163
 H         4.081298        -0.968925         0.399929
 H         1.842291        -2.586576        -0.223413
 H         0.888367        -3.040383         2.259944
 H         2.634447        -3.521253         1.929780
 H         2.219862        -1.817262         4.141400
 H         3.721099        -1.563219         2.961606
 H         2.708264         1.128471         1.401327
