19
Iteration:  2214charge 0 multiplicity 1
 C        -0.051465        -0.065086         0.306113
 C         1.320336        -0.561956         0.391266
 O         2.217017        -0.236430        -0.663500
 C         3.042098        -0.802550         0.382854
 C         1.967096        -2.000530         0.561627
 C         1.845509        -2.534881         2.096771
 C         2.528113        -1.658446         3.098697
 O         2.251052        -0.354882         2.851402
 C         2.240472        -0.007801         1.423259
 H        -0.592120        -0.492990         1.116713
 H        -0.163431         0.981829         0.498024
 H        -0.680638        -0.211517        -0.550980
 H         4.177884        -0.821232         0.269663
 H         1.918567        -2.740892        -0.237143
 H         0.779935        -2.655685         2.302421
 H         2.111267        -3.691392         1.991710
 H         2.137042        -1.780267         4.151772
 H         3.678710        -1.888083         3.085703
 H         2.370720         1.121343         1.420114
