19
Iteration:  1491charge 0 multiplicity 1
 C        -0.145279        -0.178852         0.300024
 C         1.278598        -0.512473         0.506155
 O         2.252557        -0.297157        -0.633480
 C         3.048782        -0.857950         0.402226
 C         1.949836        -1.923159         0.625966
 C         1.806035        -2.543183         2.039829
 C         2.531877        -1.646749         3.069866
 O         2.276684        -0.268921         2.786748
 C         2.371934         0.064143         1.427759
 H        -0.774378        -0.047980         1.194338
 H        -0.393606         0.697457        -0.283279
 H        -0.665903        -0.953219        -0.228346
 H         4.064502        -1.052689         0.156877
 H         1.826596        -2.570573        -0.211755
 H         0.690653        -2.723157         2.142478
 H         2.233095        -3.612946         1.967367
 H         2.149705        -1.942602         4.089270
 H         3.629549        -1.894031         2.940041
 H         2.607019         1.126760         1.505237
