19
Iteration:  1673
 C        -0.174065        -0.191820         0.318255
 C         1.274246        -0.454482         0.534446
 O         2.304342        -0.203927        -0.658567
 C         3.095993        -0.948937         0.350652
 C         1.822568        -1.888775         0.612100
 C         1.881010        -2.584859         2.044294
 C         2.525048        -1.644186         3.029089
 O         2.159734        -0.248398         2.830269
 C         2.436424        -0.000391         1.450180
 H        -0.678090        -0.438302         1.312399
 H        -0.443108         0.804648        -0.112708
 H        -0.444640        -1.073101        -0.317183
 H         4.133639        -1.383980         0.230332
 H         1.572592        -2.452398        -0.361213
 H         0.877216        -2.984921         2.255727
 H         2.501612        -3.431664         1.837211
 H         2.178192        -1.772008         4.064704
 H         3.707523        -1.723063         3.045636
 H         2.764996         1.049230         1.415689
