19
Iteration:  3837charge 0 multiplicity 1
 C        -0.165749        -0.163503         0.364405
 C         1.263781        -0.569951         0.397838
 O         2.290320        -0.204500        -0.650390
 C         3.082489        -0.950361         0.388471
 C         1.924227        -1.934712         0.611606
 C         1.882121        -2.543764         2.053229
 C         2.544718        -1.618419         3.120029
 O         2.202079        -0.261687         2.760116
 C         2.319025        -0.002850         1.427272
 H        -0.755482        -0.482729         1.249670
 H        -0.412351         0.872296         0.154219
 H        -0.714230        -0.694940        -0.431976
 H         4.153711        -1.002699         0.173065
 H         1.810489        -2.590562        -0.262427
 H         0.852133        -2.548886         2.302589
 H         2.374644        -3.466517         2.128611
 H         2.300041        -1.664595         4.236558
 H         3.661461        -1.836774         3.205812
 H         2.576408         1.065310         1.314222
