19
Iteration:  4317charge 0 multiplicity 1
 C        -0.180403        -0.087308         0.244728
 C         1.275514        -0.547266         0.465454
 O         2.205209        -0.284647        -0.667104
 C         3.062845        -0.960234         0.400036
 C         1.888408        -1.962609         0.651841
 C         1.989612        -2.491831         2.115137
 C         2.604489        -1.587801         3.091400
 O         2.179672        -0.276999         2.866472
 C         2.344727         0.011968         1.340932
 H        -0.810318        -0.536684         1.019996
 H        -0.031186         1.005909         0.189321
 H        -0.467401        -0.414659        -0.772772
 H         4.062830        -1.149405         0.018412
 H         1.637296        -2.678167        -0.151838
 H         0.979659        -2.829840         2.445709
 H         2.494798        -3.574203         2.026065
 H         1.981084        -1.839462         4.004621
 H         3.643800        -1.787248         3.276510
 H         2.459267         1.080489         1.226825
