19
Iteration:   303charge 0 multiplicity 1
 C        -0.122108        -0.090146         0.371732
 C         1.291773        -0.594892         0.431547
 O         2.226048        -0.314102        -0.680592
 C         3.042571        -0.825150         0.401650
 C         1.979451        -1.993330         0.644515
 C         1.742287        -2.581978         2.096899
 C         2.461499        -1.686027         3.028635
 O         2.390528        -0.252870         2.767514
 C         2.315975         0.106396         1.407703
 H        -0.765757        -0.433694         1.187325
 H        -0.063493         1.035648         0.431756
 H        -0.548004        -0.233174        -0.709770
 H         4.140463        -0.903844         0.346165
 H         1.957732        -2.763705        -0.183215
 H         0.629336        -2.674496         2.221385
 H         2.177219        -3.493535         2.258502
 H         2.038968        -1.957980         4.065318
 H         3.633394        -1.947296         3.084624
 H         2.334135         1.210531         1.493933
