19
Iteration:  4972charge 0 multiplicity 1
 C        -0.235625        -0.277504         0.178729
 C         1.264867        -0.496808         0.447770
 O         2.219930        -0.190950        -0.611500
 C         3.112239        -0.793624         0.396269
 C         1.971182        -1.932898         0.678515
 C         1.728374        -2.576340         1.971990
 C         2.534394        -1.733809         3.033794
 O         2.443605        -0.280878         2.924731
 C         2.316302         0.137529         1.482782
 H        -0.817771         0.442515         0.816617
 H        -0.264143         0.049029        -0.881910
 H        -0.655281        -1.310970         0.215793
 H         4.176299        -0.718732         0.211379
 H         1.993210        -2.713433        -0.137822
 H         0.585921        -2.509157         2.055427
 H         1.777985        -3.669511         2.212273
 H         2.205533        -2.381923         4.013541
 H         3.548316        -2.017497         2.885179
 H         2.473465         1.257094         1.511055
