19
Iteration:  1744
 C        -0.117336        -0.121029         0.234834
 C         1.267993        -0.524972         0.443349
 O         2.177759        -0.217779        -0.651884
 C         3.116965        -0.855167         0.427166
 C         1.913070        -1.947050         0.693288
 C         1.835670        -2.631057         2.088286
 C         2.573288        -1.699928         3.047767
 O         2.247259        -0.294036         2.805643
 C         2.356988         0.044797         1.445448
 H        -0.840207        -0.244125         1.094103
 H        -0.185953         1.011395         0.030927
 H        -0.610653        -0.637983        -0.685144
 H         4.181931        -0.987860         0.122275
 H         1.736409        -2.450607        -0.241896
 H         0.785757        -2.823951         2.393074
 H         2.176194        -3.712216         1.933135
 H         2.360762        -1.809298         4.165392
 H         3.700208        -1.740630         2.908980
 H         2.467687         1.183726         1.444534
