19
Iteration:  3461
 C        -0.086953        -0.146272         0.412049
 C         1.391125        -0.482972         0.527236
 O         2.262005        -0.307958        -0.710709
 C         3.096632        -0.847605         0.300022
 C         1.967821        -1.899385         0.645086
 C         1.909630        -2.620154         1.980353
 C         2.437451        -1.674280         3.116987
 O         2.081429        -0.291611         2.822288
 C         2.332988         0.079326         1.414332
 H        -0.670006        -0.438046         1.252709
 H        -0.246511         0.917461         0.289128
 H        -0.605898        -0.707498        -0.371129
 H         4.090682        -0.903191        -0.088059
 H         1.670385        -2.598485        -0.177504
 H         0.897502        -2.764769         2.167591
 H         2.545518        -3.573174         1.835012
 H         2.164635        -1.909908         4.150779
 H         3.559534        -1.755923         3.214289
 H         2.445188         1.210162         1.372343
