19
Iteration:   767charge 0 multiplicity 1
 C        -0.242291        -0.267274         0.185906
 C         1.272572        -0.447030         0.498432
 O         2.242073        -0.197923        -0.577769
 C         3.089327        -0.969178         0.487858
 C         1.838349        -1.886889         0.649273
 C         1.761831        -2.482570         2.070341
 C         2.601630        -1.683170         2.990246
 O         2.382568        -0.300097         2.779561
 C         2.393746         0.057580         1.426440
 H        -0.838016        -0.893011         0.838257
 H        -0.504772         0.781113         0.260045
 H        -0.407341        -0.429318        -0.886213
 H         4.209087        -1.153584         0.497612
 H         1.504282        -2.641812        -0.038987
 H         0.635812        -2.568887         2.407962
 H         1.999668        -3.586205         2.008209
 H         2.288037        -1.797590         4.012474
 H         3.779940        -1.934283         2.931302
 H         2.695003         1.127234         1.225968
