19
Iteration:  4842charge 0 multiplicity 1
 C        -0.053149        -0.112481         0.375781
 C         1.284960        -0.590857         0.475824
 O         2.178984        -0.270631        -0.667806
 C         3.043218        -0.841649         0.394481
 C         1.990442        -1.974087         0.585573
 C         1.924384        -2.607507         2.012919
 C         2.471453        -1.639482         3.115187
 O         2.195519        -0.248951         2.815875
 C         2.353124         0.061336         1.427831
 H        -0.764761        -0.773203         0.849907
 H        -0.143152         0.799923         0.920691
 H        -0.193321         0.085950        -0.688996
 H         4.052032        -0.925266         0.046592
 H         1.710718        -2.603851        -0.313435
 H         0.793830        -2.958283         1.910123
 H         2.434833        -3.579845         2.052812
 H         1.851215        -1.666264         4.049974
 H         3.619435        -1.957920         3.168513
 H         2.405292         1.136853         1.170665
