19
Iteration:  2707charge 0 multiplicity 1
 C        -0.212174        -0.084742         0.273988
 C         1.247416        -0.556718         0.391138
 O         2.292984        -0.186113        -0.623633
 C         3.035121        -0.870986         0.459560
 C         1.980857        -1.944560         0.537842
 C         1.903763        -2.626790         2.028687
 C         2.458341        -1.701399         3.091932
 O         2.294202        -0.264146         2.809850
 C         2.329648         0.056121         1.498502
 H        -0.554836        -0.375376         1.351268
 H        -0.424536         0.993602         0.176622
 H        -0.811393        -0.656664        -0.496900
 H         4.157436        -1.126335         0.291545
 H         1.907931        -2.741196        -0.216862
 H         0.894507        -2.941954         2.087131
 H         2.521708        -3.593934         2.037365
 H         2.025666        -1.845956         4.121789
 H         3.473076        -2.087129         3.102119
 H         2.435327         1.122751         1.369694
