19
Iteration:  2712
 C        -0.202514        -0.086468         0.290607
 C         1.215171        -0.546853         0.369874
 O         2.294199        -0.199040        -0.636902
 C         3.025513        -0.851032         0.489320
 C         2.033092        -1.974935         0.560923
 C         1.896925        -2.637892         1.980296
 C         2.446065        -1.692417         3.096145
 O         2.301640        -0.265576         2.833683
 C         2.334553         0.038942         1.464695
 H        -0.686003        -0.389908         1.232031
 H        -0.255422         1.026893         0.245412
 H        -0.975239        -0.520531        -0.401667
 H         4.035799        -1.039651         0.260163
 H         1.956258        -2.694897        -0.270845
 H         0.796359        -2.964357         2.273645
 H         2.520621        -3.489367         2.072522
 H         1.976248        -1.833084         4.066932
 H         3.572898        -2.005238         3.149927
 H         2.476496         1.143019         1.382924
