19
Iteration:  1291
 C        -0.222976        -0.200704         0.302247
 C         1.285625        -0.587440         0.466616
 O         2.242280        -0.261894        -0.643406
 C         3.120941        -0.823285         0.373588
 C         1.951516        -1.930587         0.600362
 C         1.788578        -2.452667         2.004397
 C         2.488552        -1.667309         3.073947
 O         2.361744        -0.280579         2.866124
 C         2.336921         0.012953         1.473031
 H        -0.867773         0.135225         1.120638
 H        -0.223878         0.634762        -0.392557
 H        -0.763719        -1.017874        -0.220178
 H         4.189105        -1.011298         0.021832
 H         1.860138        -2.769039        -0.135571
 H         0.645894        -2.353020         2.168357
 H         2.110025        -3.541962         2.082116
 H         2.074826        -1.863105         4.046596
 H         3.678313        -1.994371         3.197938
 H         2.580939         1.038534         1.205787
