19
Iteration:  2449
 C        -0.156922        -0.124056         0.222679
 C         1.288365        -0.534690         0.502000
 O         2.195737        -0.229771        -0.660833
 C         3.096749        -0.826414         0.411474
 C         1.986492        -1.961186         0.669552
 C         1.803632        -2.514602         2.005309
 C         2.546820        -1.759097         3.016876
 O         2.279861        -0.338776         2.858418
 C         2.306056         0.064718         1.494945
 H        -0.566321        -0.136227         1.218834
 H        -0.170697         0.867835        -0.211185
 H        -0.581674        -0.825617        -0.496630
 H         4.122217        -0.712027         0.174886
 H         1.805382        -2.483343        -0.260066
 H         0.780639        -2.498433         2.173106
 H         2.043080        -3.635713         2.128800
 H         2.252829        -2.141677         4.015377
 H         3.682010        -1.818067         2.945294
 H         2.500807         1.129927         1.464127
