19
Iteration:  3522charge 0 multiplicity 1
 C        -0.172696        -0.371920         0.301314
 C         1.287943        -0.575680         0.513900
 O         2.199308        -0.158805        -0.632297
 C         3.101150        -0.831898         0.380727
 C         2.000728        -1.922594         0.619064
 C         1.774211        -2.488003         1.947479
 C         2.340562        -1.677388         3.062714
 O         2.412199        -0.275457         2.848835
 C         2.439123         0.073352         1.477536
 H        -0.715553         0.123901         1.179472
 H        -0.090944         0.430124        -0.491085
 H        -0.682055        -1.259368        -0.126972
 H         4.201159        -0.775125         0.063807
 H         1.714161        -2.536420        -0.234105
 H         0.621106        -2.558767         2.212182
 H         2.163929        -3.469959         1.959995
 H         1.738176        -1.782828         4.038726
 H         3.432434        -2.014745         3.144848
 H         2.522179         1.112282         1.344368
