19
Iteration:   679charge 0 multiplicity 1
 C        -0.150080        -0.021503         0.382259
 C         1.258635        -0.567628         0.314979
 O         2.243296        -0.289602        -0.691432
 C         3.030833        -0.912158         0.363249
 C         1.992598        -1.948227         0.652354
 C         1.855659        -2.625403         2.043620
 C         2.468091        -1.657695         3.091372
 O         2.206736        -0.265432         2.833254
 C         2.403589         0.056184         1.453842
 H        -0.304211         0.196209         1.476485
 H        -0.364064         1.038803         0.111228
 H        -0.935304        -0.732042         0.134243
 H         4.161951        -1.164174         0.229749
 H         2.076001        -2.744043        -0.109497
 H         0.708252        -2.828486         2.212098
 H         2.525015        -3.505958         1.935781
 H         2.291085        -1.839661         4.117008
 H         3.564064        -1.795946         2.921816
 H         2.692718         1.158963         1.260935
