19
Iteration:   892charge 0 multiplicity 1
 C        -0.117120        -0.120134         0.346070
 C         1.300841        -0.588297         0.435870
 O         2.241839        -0.230830        -0.674845
 C         3.035981        -0.818562         0.319188
 C         2.047555        -1.887057         0.665021
 C         1.745205        -2.604202         2.104826
 C         2.500336        -1.674867         3.130779
 O         2.309584        -0.316706         2.759876
 C         2.267443        -0.018353         1.414018
 H        -0.411623         0.205676         1.348928
 H        -0.026752         0.930914        -0.043857
 H        -0.828369        -0.735352        -0.222233
 H         4.086626        -0.846255         0.194586
 H         1.890665        -2.622568        -0.176120
 H         0.613235        -2.767560         2.035515
 H         2.302968        -3.484130         2.152289
 H         2.343281        -1.833628         4.222614
 H         3.546086        -1.855631         2.960934
 H         2.232316         1.090698         1.359066
