19
Iteration:  4804
 C        -0.219189        -0.305225         0.308825
 C         1.245738        -0.498064         0.443427
 O         2.346486        -0.209276        -0.670440
 C         2.997892        -0.852897         0.420779
 C         1.921289        -1.903771         0.614326
 C         1.743115        -2.489889         1.955358
 C         2.579618        -1.717473         3.111275
 O         2.357558        -0.248999         2.817349
 C         2.364788         0.050947         1.486845
 H        -0.676994        -1.222170         0.762332
 H        -0.757740         0.612030         0.649438
 H        -0.505110        -0.390027        -0.754997
 H         4.120374        -1.059032         0.337747
 H         1.653457        -2.519553        -0.232074
 H         0.765967        -2.408705         2.257600
 H         2.126891        -3.541924         2.100569
 H         2.174293        -2.001365         4.101054
 H         3.605807        -1.875804         3.113965
 H         2.570427         1.130257         1.406841
