19
Iteration:  2576charge 0 multiplicity 1
 C        -0.175543        -0.145846         0.291627
 C         1.274079        -0.353837         0.497338
 O         2.290847        -0.216119        -0.635222
 C         3.047395        -0.928889         0.403297
 C         1.856707        -1.901357         0.634328
 C         1.971725        -2.653340         2.027730
 C         2.479112        -1.714254         3.086704
 O         2.141863        -0.317054         2.771676
 C         2.436998         0.102508         1.446691
 H        -0.562729        -0.901756         1.064526
 H        -0.407494         0.915089         0.481128
 H        -0.457438        -0.579828        -0.669089
 H         4.102711        -1.268451         0.109785
 H         1.612511        -2.581723        -0.173213
 H         0.999973        -3.114349         2.254473
 H         2.632951        -3.391595         1.811884
 H         2.066176        -1.963302         4.040471
 H         3.570118        -1.765169         3.055661
 H         2.762508         1.117574         1.374176
