19
Iteration:  2559
 C        -0.217018        -0.088722         0.377477
 C         1.292316        -0.525059         0.359388
 O         2.317311        -0.193544        -0.661975
 C         3.054509        -0.932496         0.436796
 C         1.945092        -1.927514         0.620535
 C         1.922048        -2.613823         1.914356
 C         2.486875        -1.648678         3.101091
 O         2.210170        -0.268576         2.825329
 C         2.318880        -0.011618         1.470932
 H        -0.808554        -0.627438         1.077414
 H        -0.356541         0.980294         0.580692
 H        -0.755308        -0.316697        -0.572383
 H         4.113569        -1.049629         0.434568
 H         1.822212        -2.600066        -0.268094
 H         0.919241        -2.944705         2.348591
 H         2.723005        -3.473053         2.015001
 H         1.933428        -2.032275         4.017950
 H         3.618291        -1.834217         3.140404
 H         2.651508         1.058322         1.425330
