19
Iteration:  3720charge 0 multiplicity 1
 C        -0.165844        -0.344332         0.299762
 C         1.323230        -0.515394         0.515800
 O         2.243665        -0.222389        -0.619852
 C         3.094549        -0.844056         0.462517
 C         1.929374        -1.901694         0.690295
 C         1.658620        -2.506897         2.004221
 C         2.499726        -1.680721         3.001712
 O         2.398878        -0.298494         2.773104
 C         2.331019         0.132968         1.419025
 H        -0.709771        -0.730630         1.189819
 H        -0.435293         0.698817        -0.104724
 H        -0.441122        -1.093048        -0.497338
 H         4.248318        -0.819662         0.156541
 H         1.847214        -2.393203        -0.300288
 H         0.522510        -2.264249         2.189659
 H         2.066874        -3.608024         1.940169
 H         2.235188        -1.955146         4.041404
 H         3.608279        -1.901545         3.103404
 H         2.665478         1.113946         1.297589
