19
Iteration:  4335charge 0 multiplicity 1
 C        -0.148862        -0.034206         0.188857
 C         1.210408        -0.493570         0.492000
 O         2.245615        -0.366198        -0.691114
 C         3.001041        -0.920448         0.382934
 C         1.878740        -1.928497         0.733268
 C         1.990596        -2.669328         2.077958
 C         2.623165        -1.635543         3.131475
 O         2.193509        -0.233009         2.754705
 C         2.305431         0.064193         1.460577
 H        -0.834530        -0.689208         0.841115
 H        -0.306588         1.058998         0.293171
 H        -0.477387        -0.201675        -0.881206
 H         4.035001        -1.175178         0.404683
 H         1.737170        -2.725439        -0.006011
 H         0.971853        -2.975014         2.334389
 H         2.661151        -3.504281         2.026244
 H         2.449991        -1.591782         4.187988
 H         3.694175        -1.567569         2.827250
 H         2.643598         1.152539         1.533166
