19
Iteration:  4886charge 0 multiplicity 1
 C        -0.113094        -0.078104         0.323334
 C         1.264150        -0.488642         0.451405
 O         2.249940        -0.242206        -0.686288
 C         3.051544        -0.915547         0.447025
 C         1.886957        -1.933699         0.632588
 C         1.945657        -2.669495         2.009025
 C         2.540908        -1.667530         3.109860
 O         2.191497        -0.289674         2.764804
 C         2.300555         0.068803         1.398777
 H        -0.680737        -0.566959         1.123065
 H        -0.266444         0.943535         0.556726
 H        -0.449547        -0.368183        -0.677673
 H         4.128486        -1.042947         0.474052
 H         1.767790        -2.537485        -0.325560
 H         0.977189        -3.187342         2.447584
 H         2.570507        -3.572720         2.086726
 H         2.077545        -1.788570         4.135301
 H         3.634632        -1.509648         3.192802
 H         2.585747         1.139164         1.443547
