19
Iteration:   856
 C        -0.085641        -0.165253         0.385000
 C         1.289171        -0.403488         0.497898
 O         2.262247        -0.327571        -0.630997
 C         3.026657        -0.991377         0.378877
 C         1.847911        -1.874724         0.632563
 C         1.942382        -2.569693         1.933817
 C         2.501012        -1.622210         3.034533
 O         2.180348        -0.234128         2.795778
 C         2.380473         0.031048         1.457758
 H        -0.500435        -0.201575         1.354068
 H        -0.226012         0.731026        -0.157349
 H        -0.680016        -0.885464        -0.148302
 H         4.041959        -1.379774         0.384501
 H         1.591791        -2.388362        -0.293781
 H         0.961694        -3.008756         2.308759
 H         2.543948        -3.457264         1.781045
 H         2.096921        -1.752528         4.044251
 H         3.514732        -1.799186         3.053989
 H         2.680874         1.069291         1.374544
