19
Iteration:  4057
 C        -0.226426        -0.381814         0.295615
 C         1.258065        -0.560165         0.441854
 O         2.212581        -0.163416        -0.670367
 C         3.073612        -0.915349         0.401478
 C         1.973842        -1.935388         0.580855
 C         1.788619        -2.460303         2.036140
 C         2.403395        -1.604977         3.157969
 O         2.499118        -0.210325         2.854552
 C         2.410359         0.046171         1.423311
 H        -0.785736        -0.634848         1.226864
 H        -0.622702         0.660058        -0.046651
 H        -0.729089        -0.993274        -0.535652
 H         4.149238        -1.133197         0.013607
 H         1.867997        -2.598246        -0.345192
 H         0.673730        -2.617645         1.942693
 H         2.004010        -3.488841         2.332691
 H         1.878107        -1.798216         4.148391
 H         3.350441        -1.946603         3.121804
 H         2.595352         1.070109         1.335253
