19
Iteration:  1058charge 0 multiplicity 1
 C        -0.097158        -0.269812         0.386997
 C         1.342370        -0.441871         0.426526
 O         2.211064        -0.225222        -0.668728
 C         3.048061        -0.999297         0.358685
 C         1.868999        -1.837017         0.691706
 C         1.858838        -2.594483         1.942487
 C         2.440194        -1.601038         3.022254
 O         2.214584        -0.236401         2.807532
 C         2.425019         0.056637         1.500367
 H        -0.382781        -0.101929         1.431981
 H        -0.247443         0.679085        -0.117261
 H        -0.547515        -1.092679        -0.143686
 H         4.042508        -1.412737         0.190815
 H         1.681062        -2.610479        -0.108828
 H         0.770509        -2.900232         2.239017
 H         2.451964        -3.508109         1.865830
 H         2.029316        -1.840557         3.989159
 H         3.677367        -1.784310         3.248718
 H         3.005851         0.997376         1.416123
