19
Iteration:  3196
 C        -0.248860        -0.265351         0.157508
 C         1.286889        -0.547775         0.393909
 O         2.278135        -0.119189        -0.670437
 C         3.048885        -0.828410         0.524520
 C         1.913690        -1.923510         0.583742
 C         1.736962        -2.483480         2.080347
 C         2.621799        -1.770059         3.027374
 O         2.391609        -0.321493         2.881471
 C         2.259168         0.045484         1.520071
 H        -0.697259        -0.614185         1.128766
 H        -0.562580         0.789226         0.137333
 H        -0.543805        -0.781898        -0.724838
 H         4.193510        -0.850125         0.499396
 H         1.911595        -2.667817        -0.246408
 H         0.642749        -2.529080         2.274426
 H         2.198675        -3.522788         2.027260
 H         2.410055        -2.013011         4.020948
 H         3.824345        -1.778761         2.709453
 H         2.419940         1.088868         1.534144
