19
Iteration:   578charge 0 multiplicity 1
 C        -0.129418        -0.155623         0.190446
 C         1.257769        -0.549120         0.520267
 O         2.193957        -0.258143        -0.654188
 C         3.053974        -0.830702         0.479993
 C         1.914360        -1.984036         0.663477
 C         1.651575        -2.521575         2.047355
 C         2.638215        -1.664990         3.055217
 O         2.389510        -0.281830         2.828954
 C         2.365413         0.058690         1.415034
 H        -0.579115        -0.782458         0.979865
 H        -0.507310         0.854914         0.262820
 H        -0.486350        -0.389637        -0.785913
 H         4.065665        -0.942024         0.119184
 H         1.833886        -2.691674        -0.162544
 H         0.556457        -2.577785         2.337364
 H         1.883585        -3.577929         2.114320
 H         2.571346        -1.893271         4.106746
 H         3.592010        -1.896461         2.739650
 H         2.647490         1.094461         1.219934
