19
Iteration:  4782charge 0 multiplicity 1
 C        -0.198879        -0.336410         0.197461
 C         1.279771        -0.558090         0.397249
 O         2.207383        -0.110008        -0.589800
 C         3.116298        -0.899393         0.457950
 C         1.974878        -1.934246         0.613649
 C         1.629797        -2.468292         2.043896
 C         2.602831        -1.658709         3.001041
 O         2.404755        -0.300186         2.909484
 C         2.340728         0.038326         1.456050
 H        -0.822741        -0.923354         0.917237
 H        -0.447096         0.762575         0.288001
 H        -0.542378        -0.579112        -0.822247
 H         4.196251        -1.006891         0.082938
 H         1.695180        -2.602571        -0.214982
 H         0.631753        -2.295251         2.258909
 H         2.022026        -3.480615         2.360969
 H         2.491929        -1.865810         4.081095
 H         3.596620        -1.982665         2.730354
 H         2.378041         1.131061         1.385595
