19
Iteration:  2542
 C        -0.086254        -0.095872         0.351391
 C         1.251907        -0.642449         0.514293
 O         2.280207        -0.222784        -0.617668
 C         3.105753        -0.792029         0.428007
 C         1.996450        -1.968474         0.506785
 C         1.860875        -2.611183         1.988634
 C         2.457854        -1.712987         3.063131
 O         2.240383        -0.267177         2.848762
 C         2.251402         0.038219         1.397119
 H        -0.728870        -0.391490         1.276642
 H        -0.099161         1.011180         0.533409
 H        -0.601648        -0.225606        -0.594482
 H         4.170496        -0.859219         0.027386
 H         1.912208        -2.681993        -0.318389
 H         0.809047        -2.725505         2.086578
 H         2.265769        -3.587617         2.050325
 H         2.123672        -1.687003         4.073535
 H         3.523551        -1.926329         3.164140
 H         2.174711         1.115329         1.197046
