19
Iteration:  3573
 C        -0.174969        -0.144280         0.190774
 C         1.221863        -0.572038         0.499054
 O         2.287181        -0.277600        -0.607103
 C         3.082421        -0.857866         0.518636
 C         1.920503        -1.925136         0.601125
 C         1.830226        -2.547177         1.968083
 C         2.609759        -1.658030         3.014170
 O         2.243581        -0.258860         2.858043
 C         2.271900         0.027111         1.485395
 H        -0.700199        -0.080485         1.130842
 H        -0.119352         0.842122        -0.176134
 H        -0.630856        -0.963939        -0.344865
 H         4.091182        -1.024150         0.256475
 H         1.840129        -2.538972        -0.290002
 H         0.833996        -2.642989         2.419665
 H         2.397672        -3.530415         1.795058
 H         2.511338        -1.930031         4.100599
 H         3.625423        -1.772130         2.708060
 H         2.447976         1.141537         1.249286
