19
Iteration:  3813charge 0 multiplicity 1
 C        -0.100497         0.004829         0.314944
 C         1.239705        -0.586912         0.404952
 O         2.252915        -0.314395        -0.661032
 C         3.032600        -0.944481         0.396587
 C         1.939986        -1.970427         0.667772
 C         2.010241        -2.622513         2.030527
 C         2.592505        -1.614860         2.991831
 O         2.097649        -0.242056         2.859167
 C         2.257432         0.034490         1.466307
 H        -0.688437         0.137003         1.281046
 H        -0.079680         0.932472        -0.281213
 H        -0.774074        -0.615422        -0.319384
 H         4.093933        -1.009162         0.315166
 H         1.816211        -2.711549        -0.148739
 H         1.062408        -2.902544         2.329977
 H         2.712057        -3.386503         1.984042
 H         2.356593        -1.808356         4.092702
 H         3.737115        -1.726843         3.134253
 H         2.415964         1.176389         1.350771
