19
Iteration:  3495charge 0 multiplicity 1
 C        -0.202748        -0.257304         0.419144
 C         1.269995        -0.541534         0.405097
 O         2.261294        -0.165887        -0.629963
 C         3.122740        -0.886461         0.427699
 C         2.038558        -1.969342         0.589574
 C         1.798550        -2.586772         1.916447
 C         2.337261        -1.661926         3.126250
 O         2.388647        -0.210275         2.832189
 C         2.364453         0.033984         1.396492
 H        -0.472922        -0.109395         1.426013
 H        -0.490296         0.567748        -0.199771
 H        -0.694500        -1.100948        -0.112996
 H         4.167377        -0.740151         0.318576
 H         1.817099        -2.477630        -0.363996
 H         0.844888        -2.832266         2.147422
 H         2.178831        -3.667951         1.862926
 H         1.710042        -1.647289         4.053751
 H         3.393679        -1.915089         3.285006
 H         2.343327         1.166215         1.164005
