19
Iteration:  1293
 C        -0.198974        -0.195455         0.305890
 C         1.275476        -0.607685         0.447556
 O         2.236211        -0.255872        -0.640184
 C         3.128320        -0.830794         0.367247
 C         1.954862        -1.940707         0.612523
 C         1.798240        -2.434955         2.004365
 C         2.489623        -1.678735         3.062984
 O         2.370937        -0.282576         2.865589
 C         2.318199         0.019512         1.477493
 H        -0.870221         0.115397         1.085626
 H        -0.194730         0.643563        -0.411381
 H        -0.849980        -0.944743        -0.195001
 H         4.214930        -0.960924         0.110964
 H         1.820539        -2.716247        -0.138856
 H         0.685125        -2.354008         2.211543
 H         2.068253        -3.561951         2.107102
 H         2.039989        -1.871733         4.096446
 H         3.640431        -1.991998         3.195580
 H         2.482306         1.072316         1.182506
