19
Iteration:  2737
 C        -0.073275        -0.044740         0.367346
 C         1.264442        -0.596209         0.502424
 O         2.207285        -0.282196        -0.671765
 C         3.109366        -0.777360         0.410108
 C         2.064057        -1.939413         0.587229
 C         1.910006        -2.590986         1.975972
 C         2.420727        -1.736962         3.101044
 O         2.219014        -0.288210         2.786405
 C         2.285527         0.045543         1.443882
 H        -0.807743        -0.534167         0.935327
 H        -0.104281         1.008927         0.512735
 H        -0.599665        -0.322350        -0.495822
 H         4.151705        -0.930387         0.156193
 H         1.817149        -2.656286        -0.211861
 H         0.820367        -2.742630         2.116888
 H         2.453015        -3.627054         2.075080
 H         1.957819        -1.760370         4.053598
 H         3.488550        -1.986831         3.163213
 H         2.167212         1.146191         1.387250
