19
Iteration:  4976
 C        -0.221511        -0.290130         0.174470
 C         1.278875        -0.486078         0.451838
 O         2.216761        -0.205780        -0.602741
 C         3.091283        -0.800993         0.366865
 C         1.987109        -1.890551         0.669060
 C         1.747307        -2.576236         1.982147
 C         2.542665        -1.765602         3.039648
 O         2.397863        -0.268096         2.939481
 C         2.335720         0.156029         1.481371
 H        -0.765355         0.462754         0.742274
 H        -0.403574         0.040259        -0.824244
 H        -0.649953        -1.273797         0.312523
 H         4.202569        -0.863012         0.145273
 H         1.834835        -2.641178        -0.179854
 H         0.524393        -2.684550         2.029270
 H         1.855930        -3.639880         2.220151
 H         2.176527        -2.220095         3.941887
 H         3.592984        -2.146709         2.912323
 H         2.600834         1.189086         1.520110
