19
Iteration:  4964
 C        -0.225812        -0.279659         0.163818
 C         1.244757        -0.543935         0.469303
 O         2.229312        -0.166071        -0.630203
 C         3.089439        -0.749506         0.489449
 C         1.985858        -1.965331         0.632226
 C         1.686596        -2.535274         2.006327
 C         2.513824        -1.739686         3.017404
 O         2.485836        -0.315201         2.875861
 C         2.308052         0.061824         1.505008
 H        -0.736076         0.353731         0.911189
 H        -0.189622         0.107375        -0.819602
 H        -0.791526        -1.210988         0.087602
 H         4.185389        -0.678935         0.265126
 H         2.060791        -2.647367        -0.280938
 H         0.612228        -2.150651         2.318404
 H         1.931153        -3.605925         2.004931
 H         2.333647        -1.888496         4.120079
 H         3.587518        -1.907281         2.841710
 H         2.271515         1.136672         1.409288
