19
Iteration:    55
 C        -0.211303        -0.035464         0.280835
 C         1.284234        -0.524219         0.432547
 O         2.253542        -0.276945        -0.719250
 C         3.065584        -0.992720         0.472219
 C         1.916192        -1.941750         0.727676
 C         1.780949        -2.561107         2.104292
 C         2.593138        -1.688907         3.088369
 O         2.328031        -0.278834         2.763797
 C         2.344195         0.066671         1.346273
 H        -1.002814        -0.696569         0.528281
 H        -0.342197         0.890993         0.837749
 H        -0.433933         0.116061        -0.767481
 H         4.123820        -1.028298         0.279767
 H         1.805850        -2.725174         0.018426
 H         0.844263        -2.512374         2.486758
 H         2.057822        -3.648936         2.162155
 H         2.214903        -1.807161         4.123331
 H         3.607791        -1.925562         3.074470
 H         2.480782         1.145203         1.296657
