19
Iteration:  1355charge 0 multiplicity 1
 C        -0.137262        -0.163537         0.276036
 C         1.288840        -0.426712         0.431933
 O         2.254493        -0.290940        -0.661051
 C         2.982631        -1.024707         0.409732
 C         1.796649        -1.864347         0.657759
 C         1.904249        -2.559966         2.002489
 C         2.640604        -1.646723         3.066756
 O         2.177064        -0.268147         2.841362
 C         2.386288         0.070954         1.482453
 H        -0.736779        -0.484568         1.110289
 H        -0.330950         0.843985        -0.048881
 H        -0.080962        -0.798991        -0.621563
 H         4.076210        -1.255241         0.316227
 H         1.602168        -2.535770        -0.241539
 H         0.950792        -2.729496         2.484356
 H         2.443515        -3.472125         1.818536
 H         2.397675        -1.882389         4.039674
 H         3.633106        -1.667935         2.964696
 H         2.722110         1.098958         1.553442
