19
Iteration:  2956
 C        -0.229131        -0.216785         0.290993
 C         1.280290        -0.536925         0.449247
 O         2.269711        -0.220752        -0.583830
 C         3.099281        -0.856702         0.451070
 C         1.927204        -1.898319         0.566928
 C         1.837640        -2.686004         1.917870
 C         2.476171        -1.666179         3.033393
 O         2.285997        -0.203951         2.861157
 C         2.353659         0.114569         1.518735
 H        -0.721483        -0.750650         1.190802
 H        -0.446117         0.862332         0.347905
 H        -0.544516        -0.451441        -0.744909
 H         4.200091        -0.989106         0.260251
 H         1.938961        -2.756347        -0.210800
 H         0.839437        -3.065653         2.125474
 H         2.343685        -3.571322         1.900439
 H         2.348421        -1.910147         4.057211
 H         3.521103        -1.948379         2.868782
 H         2.619421         1.128670         1.218866
