19
Iteration:  3379
 C        -0.173732        -0.302057         0.046618
 C         1.276655        -0.487493         0.600691
 O         2.165853        -0.199806        -0.577643
 C         3.065548        -0.821982         0.435782
 C         1.945796        -1.892421         0.673545
 C         1.764098        -2.535203         2.038215
 C         2.620302        -1.734590         2.968886
 O         2.356432        -0.289163         2.881866
 C         2.365829         0.087889         1.521980
 H        -0.860973        -0.729560         0.823869
 H        -0.554848         0.733759        -0.122014
 H        -0.174778        -0.724503        -0.985052
 H         4.161031        -0.952032         0.181321
 H         1.632168        -2.446376        -0.207072
 H         0.703815        -2.565137         2.351566
 H         1.936438        -3.597264         1.944322
 H         2.219294        -2.097516         3.935212
 H         3.634798        -1.886810         2.726756
 H         2.510037         1.112719         1.253239
