19
Iteration:  4344
 C        -0.213755        -0.023962         0.151228
 C         1.247752        -0.477189         0.458842
 O         2.213447        -0.369099        -0.709588
 C         3.030515        -0.899793         0.504062
 C         1.877112        -1.930696         0.759377
 C         1.986251        -2.702389         2.157142
 C         2.615785        -1.601309         3.003258
 O         2.188592        -0.249918         2.844513
 C         2.355142         0.088680         1.387351
 H        -0.855752        -0.639309         0.783858
 H        -0.220863         1.003953         0.453216
 H        -0.380308        -0.208881        -0.902864
 H         4.060153        -1.260802         0.205529
 H         1.798367        -2.587691        -0.133244
 H         1.044485        -3.193463         2.402534
 H         2.559427        -3.524916         2.004180
 H         2.519875        -1.731120         4.078300
 H         3.732329        -1.803955         2.805620
 H         2.449185         1.199073         1.277209
