19
Iteration:  4291
 C        -0.176281        -0.205138         0.356085
 C         1.317997        -0.540050         0.460272
 O         2.247526        -0.282888        -0.648501
 C         3.053230        -0.881401         0.400193
 C         2.036772        -2.007695         0.610599
 C         1.772559        -2.552100         2.082129
 C         2.468629        -1.613977         3.080261
 O         2.315066        -0.197706         2.817900
 C         2.313501         0.058032         1.373147
 H        -0.558441        -0.364833         1.409551
 H        -0.161401         0.806749        -0.104847
 H        -0.723603        -0.859036        -0.384465
 H         4.020794        -0.802964        -0.060507
 H         1.757670        -2.605363        -0.267528
 H         0.697536        -2.819371         2.180183
 H         2.317736        -3.520807         2.083984
 H         2.046045        -1.698964         4.069785
 H         3.525709        -1.915413         3.012108
 H         2.575680         1.167284         1.186821
