19
Iteration:  4343charge 0 multiplicity 1
 C        -0.213809        -0.024481         0.153213
 C         1.244070        -0.475976         0.466457
 O         2.216331        -0.369173        -0.711426
 C         3.025444        -0.896300         0.495576
 C         1.874464        -1.928245         0.756515
 C         1.990366        -2.700276         2.152435
 C         2.616395        -1.604713         3.012886
 O         2.187612        -0.245237         2.838498
 C         2.353761         0.082992         1.391303
 H        -0.813440        -0.651924         0.771312
 H        -0.203861         1.008857         0.427113
 H        -0.389944        -0.200541        -0.883934
 H         4.080292        -1.290120         0.218025
 H         1.805735        -2.616023        -0.116553
 H         1.037987        -3.197448         2.373835
 H         2.567008        -3.566147         2.004948
 H         2.508786        -1.677697         4.099575
 H         3.726506        -1.805144         2.790595
 H         2.454247         1.179998         1.329168
