19
Iteration:  2442
 C        -0.101681        -0.095296         0.264510
 C         1.286834        -0.561473         0.465571
 O         2.193241        -0.271114        -0.673883
 C         3.096909        -0.745288         0.368334
 C         2.018237        -1.880852         0.663344
 C         1.795090        -2.524431         2.065765
 C         2.537680        -1.748109         3.051764
 O         2.277456        -0.415156         2.878749
 C         2.281502         0.043241         1.414033
 H        -0.853246        -0.109722         1.109503
 H        -0.085488         0.965072        -0.140389
 H        -0.650687        -0.761930        -0.502919
 H         4.213757        -0.828984         0.215475
 H         1.730621        -2.618460        -0.183712
 H         0.659448        -2.450867         2.224943
 H         2.244586        -3.548449         2.012861
 H         2.267967        -2.079790         4.102802
 H         3.614144        -1.835749         2.922757
 H         2.288057         1.178780         1.627376
