19
Iteration:  3025
 C        -0.237627        -0.237569         0.190505
 C         1.229320        -0.587069         0.449791
 O         2.273458        -0.274006        -0.553903
 C         3.046836        -0.815053         0.501370
 C         1.987901        -1.894397         0.615021
 C         1.760849        -2.502968         1.908905
 C         2.555341        -1.703354         2.968848
 O         2.394641        -0.275607         2.919425
 C         2.261959         0.077449         1.496245
 H        -0.734666        -0.365849         1.138860
 H        -0.239659         0.828130        -0.104045
 H        -0.558063        -0.704004        -0.701431
 H         4.121525        -0.835895         0.274007
 H         1.983545        -2.471390        -0.336297
 H         0.775607        -2.630936         2.272544
 H         2.071028        -3.542099         1.946733
 H         2.431555        -2.078230         4.031059
 H         3.707608        -1.829101         2.758458
 H         2.431133         1.166461         1.496636
