19
Iteration:  4064
 C        -0.189677        -0.398256         0.277643
 C         1.272540        -0.570306         0.448215
 O         2.177366        -0.141152        -0.663609
 C         3.088981        -0.931791         0.399425
 C         1.957143        -1.948285         0.533319
 C         1.755171        -2.491125         2.024461
 C         2.404734        -1.626813         3.125901
 O         2.506545        -0.158488         2.881616
 C         2.395832         0.032680         1.433424
 H        -0.770946        -0.718670         1.167357
 H        -0.367596         0.645859         0.227998
 H        -0.489446        -1.050587        -0.524280
 H         4.075481        -0.861243         0.048599
 H         1.774204        -2.781066        -0.108069
 H         0.607632        -2.390071         2.132870
 H         1.891969        -3.584368         2.250930
 H         1.843486        -1.651893         4.084170
 H         3.553041        -1.923567         3.304639
 H         2.665784         1.113258         1.202789
