19
Iteration:  4373charge 0 multiplicity 1
 C        -0.148605        -0.099144         0.149757
 C         1.219599        -0.575508         0.496664
 O         2.249765        -0.305336        -0.660660
 C         2.996876        -0.898409         0.449105
 C         1.908815        -1.946085         0.672167
 C         1.887644        -2.520931         2.146485
 C         2.696791        -1.569257         3.017773
 O         2.238358        -0.274146         2.825189
 C         2.289172        -0.014871         1.456095
 H        -0.881572        -0.589827         0.787813
 H        -0.296696         0.927375         0.571999
 H        -0.281005        -0.284737        -0.913393
 H         4.050948        -1.222215         0.142398
 H         1.793499        -2.602661        -0.210536
 H         0.787704        -2.463240         2.357851
 H         2.161215        -3.703489         2.016805
 H         2.607179        -1.793059         4.110792
 H         3.742876        -1.745049         2.858876
 H         2.234363         1.026282         1.177588
