19
Iteration:  3994
 C        -0.233333        -0.018167         0.308449
 C         1.277941        -0.640334         0.447145
 O         2.249603        -0.286950        -0.614704
 C         3.090303        -0.916839         0.373341
 C         1.968515        -2.029227         0.632231
 C         1.988283        -2.524931         2.034121
 C         2.588637        -1.580875         3.065360
 O         2.082356        -0.256242         2.827604
 C         2.319344        -0.033141         1.383108
 H        -0.586495         0.370648         1.223065
 H         0.098695         0.896140        -0.164956
 H        -0.896469        -0.730806        -0.134274
 H         4.212472        -0.997881         0.216713
 H         1.604419        -2.692234        -0.202658
 H         0.984593        -2.550712         2.455720
 H         2.424041        -3.521426         2.242074
 H         2.413600        -1.930789         4.078922
 H         3.812383        -1.452748         2.881051
 H         2.549871         1.004854         1.256117
