19
Iteration:  3335charge 0 multiplicity 1
 C        -0.214944        -0.292963         0.308098
 C         1.250056        -0.537163         0.334996
 O         2.233527        -0.188091        -0.645666
 C         3.112427        -0.830993         0.471151
 C         2.002014        -1.893731         0.589442
 C         1.807983        -2.517892         1.926726
 C         2.498068        -1.713835         3.098443
 O         2.354595        -0.297936         2.885944
 C         2.338301         0.081223         1.470964
 H        -0.596933        -0.378973         1.361366
 H        -0.588177         0.717473        -0.005336
 H        -0.761767        -0.978165        -0.433576
 H         4.213854        -0.872165         0.279251
 H         2.026463        -2.619370        -0.212289
 H         0.720422        -2.335051         2.197374
 H         1.947901        -3.626885         2.124929
 H         1.851380        -1.955284         4.007642
 H         3.661870        -2.071294         3.066170
 H         2.528092         1.152642         1.555200
