19
Iteration:  4811
 C        -0.268174        -0.263898         0.320478
 C         1.282535        -0.428489         0.493396
 O         2.322227        -0.235335        -0.687101
 C         3.062192        -0.885167         0.446003
 C         1.972346        -1.872619         0.601357
 C         1.781250        -2.578945         1.999161
 C         2.528864        -1.678963         3.068598
 O         2.338311        -0.295131         2.830341
 C         2.347552         0.086556         1.420225
 H        -0.736451        -1.233165         0.723815
 H        -0.731192         0.608838         0.779742
 H        -0.444129        -0.366496        -0.785780
 H         4.126066        -1.071055         0.163332
 H         1.563052        -2.496900        -0.271019
 H         0.605588        -2.661867         2.057576
 H         2.163286        -3.574495         2.286414
 H         2.243824        -1.677013         4.120080
 H         3.653883        -1.967080         3.212311
 H         2.450465         1.178641         1.414342
