19
Iteration:  2147charge 0 multiplicity 1
 C        -0.212622        -0.229801         0.262736
 C         1.251811        -0.546341         0.423492
 O         2.259140        -0.157889        -0.661219
 C         3.088305        -0.858819         0.385548
 C         1.953060        -1.926022         0.622183
 C         1.728186        -2.447893         1.988156
 C         2.543968        -1.730003         3.058122
 O         2.365022        -0.327126         2.873634
 C         2.369303         0.023202         1.482621
 H        -0.704397        -0.384336         1.184643
 H        -0.307155         0.800918         0.018638
 H        -0.646600        -0.862743        -0.522555
 H         4.170987        -0.930466         0.294811
 H         1.823568        -2.674043        -0.183651
 H         0.706258        -2.469046         2.282775
 H         1.963876        -3.508292         2.353146
 H         2.079113        -1.978253         4.059517
 H         3.635898        -1.974908         3.191169
 H         2.566183         1.121029         1.429995
