19
Iteration:  1604charge 0 multiplicity 1
 C        -0.178960        -0.189607         0.252932
 C         1.272664        -0.572839         0.461957
 O         2.160670        -0.231747        -0.638213
 C         3.061564        -0.876354         0.464879
 C         2.003776        -1.966655         0.568950
 C         1.759647        -2.456030         2.003557
 C         2.496372        -1.664049         3.057707
 O         2.423285        -0.279253         2.847326
 C         2.325873         0.023973         1.471875
 H        -0.660546        -0.694168         1.056138
 H        -0.219746         0.892191         0.217243
 H        -0.519146        -0.643770        -0.703145
 H         4.179334        -0.978796         0.287305
 H         2.089310        -2.653049        -0.285811
 H         0.654677        -2.427299         2.314530
 H         2.040424        -3.573564         2.193854
 H         2.034067        -1.893321         3.994969
 H         3.703496        -1.750820         3.179354
 H         2.398553         1.106732         1.203432
