19
Iteration:   789charge 0 multiplicity 1
 C        -0.116608        -0.160662         0.205492
 C         1.238700        -0.598918         0.478130
 O         2.220883        -0.296218        -0.680654
 C         3.028103        -0.784760         0.363406
 C         1.968608        -1.942047         0.663292
 C         1.703888        -2.563679         2.110002
 C         2.533417        -1.689216         3.005372
 O         2.415393        -0.250062         2.892823
 C         2.305969         0.067395         1.504110
 H        -0.778151        -0.707705         0.877316
 H        -0.164786         0.906752         0.385040
 H        -0.516773        -0.226599        -0.767799
 H         4.125727        -0.873820         0.063311
 H         1.961391        -2.635399        -0.169935
 H         0.545629        -2.568784         2.252738
 H         1.864722        -3.658546         2.214874
 H         2.500371        -1.940790         4.047830
 H         3.621545        -1.790614         2.637631
 H         2.649931         1.086051         1.297008
