19
Iteration:  3153charge 0 multiplicity 1
 C        -0.132838        -0.320373         0.278837
 C         1.292524        -0.460303         0.473205
 O         2.196491        -0.174002        -0.673312
 C         3.119350        -0.822365         0.364226
 C         1.960071        -1.881535         0.599232
 C         1.746492        -2.570275         1.984590
 C         2.481356        -1.667010         3.041336
 O         2.296072        -0.308911         2.941743
 C         2.380959         0.055301         1.509634
 H        -0.790891        -0.760548         1.137481
 H        -0.252619         0.759123         0.052644
 H        -0.227301        -0.984638        -0.577687
 H         4.211140        -1.008370         0.019632
 H         1.682020        -2.494479        -0.319605
 H         0.647367        -2.573575         2.303243
 H         2.320461        -3.477617         1.999409
 H         2.159693        -1.957761         3.995620
 H         3.614846        -2.074861         2.890297
 H         2.511662         1.093946         1.382245
