19
Iteration:  3794
 C        -0.160508         0.052863         0.199709
 C         1.230637        -0.473401         0.526951
 O         2.174326        -0.374293        -0.631767
 C         3.073139        -0.839541         0.450789
 C         2.002869        -1.980516         0.696047
 C         2.017788        -2.740559         2.104374
 C         2.574373        -1.632397         3.013185
 O         2.096021        -0.314050         2.766816
 C         2.304725         0.114493         1.420420
 H        -0.463777         0.324025         1.221970
 H         0.030730         0.798804        -0.553953
 H        -0.861790        -0.566330        -0.317772
 H         4.138561        -1.087426         0.189350
 H         1.742544        -2.631332        -0.138119
 H         0.993809        -3.221284         2.270989
 H         2.784062        -3.567840         1.925282
 H         2.633685        -1.853642         4.135926
 H         3.671131        -1.615936         2.943561
 H         2.409770         1.207074         1.411735
