19
Iteration:   402charge 0 multiplicity 1
 C        -0.077412        -0.093449         0.242039
 C         1.280818        -0.631917         0.389562
 O         2.198108        -0.252570        -0.691200
 C         3.029246        -0.777176         0.420155
 C         1.970024        -1.970504         0.657355
 C         1.722731        -2.517237         2.156227
 C         2.622580        -1.786434         3.110452
 O         2.390448        -0.294422         2.884529
 C         2.212438         0.086179         1.323701
 H        -0.526473         0.011711         1.246921
 H         0.128308         0.953092        -0.104452
 H        -0.687552        -0.793269        -0.401369
 H         3.994272        -0.907714         0.066477
 H         1.745286        -2.648986        -0.194846
 H         0.666959        -2.293387         2.390970
 H         1.938028        -3.528776         2.128364
 H         2.295583        -1.972245         4.160357
 H         3.520697        -2.127508         2.982486
 H         2.320036         1.131182         1.223354
