19
Iteration:     8charge 0 multiplicity 1
 C        -0.074531        -0.110383         0.276102
 C         1.299465        -0.498152         0.451163
 O         2.219244        -0.258465        -0.665985
 C         3.061968        -0.973153         0.392393
 C         1.864403        -1.919590         0.673271
 C         1.784038        -2.546525         2.059937
 C         2.513032        -1.690590         3.011278
 O         2.311231        -0.221908         2.850307
 C         2.364091         0.051048         1.397428
 H        -0.601973        -0.465710         1.135844
 H        -0.232160         0.958576         0.225474
 H        -0.538325        -0.720678        -0.566237
 H         4.075330        -1.452886         0.291415
 H         1.371534        -2.667492         0.019624
 H         0.815582        -2.682594         2.482367
 H         2.292434        -3.576888         2.145104
 H         2.248521        -1.876168         4.108920
 H         3.553112        -1.917835         2.892921
 H         2.712898         1.130257         1.357670
