19
Iteration:   731charge 0 multiplicity 1
 C        -0.200389        -0.170283         0.236363
 C         1.306201        -0.438301         0.460523
 O         2.193119        -0.212899        -0.688975
 C         3.143252        -1.010733         0.351165
 C         1.905286        -1.940248         0.640708
 C         1.788059        -2.602942         2.081056
 C         2.499392        -1.684314         3.048093
 O         2.355182        -0.239467         2.892570
 C         2.334899         0.093225         1.475359
 H        -0.888661        -0.450596         1.061237
 H        -0.432385         0.892673         0.191021
 H        -0.550385        -0.763927        -0.561929
 H         4.263640        -1.029640         0.137469
 H         1.560933        -2.554182        -0.219098
 H         0.710886        -2.715597         2.361816
 H         2.425382        -3.599539         2.085751
 H         2.293228        -1.956923         4.090919
 H         3.641903        -1.844232         2.916982
 H         2.815657         1.095445         1.345301
