19
Iteration:  3492charge 0 multiplicity 1
 C        -0.210597        -0.255737         0.422164
 C         1.291841        -0.527011         0.391627
 O         2.252669        -0.161960        -0.648490
 C         3.127540        -0.873212         0.456809
 C         2.027622        -1.969040         0.608560
 C         1.827624        -2.583048         1.932658
 C         2.328825        -1.678222         3.132202
 O         2.362709        -0.229797         2.815000
 C         2.380181         0.036460         1.375817
 H        -0.506950        -0.124066         1.482391
 H        -0.539351         0.617394        -0.186333
 H        -0.778725        -1.015944        -0.126254
 H         4.208755        -0.697372         0.264686
 H         1.821866        -2.535494        -0.323942
 H         0.788001        -2.831959         2.196932
 H         2.195050        -3.655565         1.852614
 H         1.840166        -1.667922         4.024400
 H         3.338947        -1.902409         3.332812
 H         2.451359         1.071218         1.164234
