19
Iteration:  1446
 C        -0.167714        -0.303233         0.307816
 C         1.267923        -0.484919         0.485704
 O         2.284704        -0.192821        -0.610131
 C         3.077318        -0.895684         0.401093
 C         1.928140        -1.888111         0.613554
 C         1.769240        -2.512377         2.064259
 C         2.469583        -1.628269         3.076635
 O         2.363475        -0.295962         2.743885
 C         2.385184        -0.006339         1.413945
 H        -0.675246        -0.403429         1.313384
 H        -0.670755         0.677208         0.186224
 H        -0.586275        -0.878330        -0.508802
 H         4.196757        -0.902085         0.349484
 H         1.637569        -2.577086        -0.199196
 H         0.622628        -2.466126         2.107637
 H         2.050855        -3.652999         2.079803
 H         1.994617        -1.807037         4.092833
 H         3.539839        -1.781430         3.138914
 H         2.705192         1.029800         1.126797
