19
Iteration:   940
 C        -0.205414        -0.272302         0.221543
 C         1.303963        -0.484359         0.485034
 O         2.315107        -0.156519        -0.641503
 C         3.043366        -0.916439         0.373991
 C         1.792520        -1.930330         0.697098
 C         1.759774        -2.522391         2.085078
 C         2.523371        -1.692750         2.997426
 O         2.386989        -0.287817         2.832870
 C         2.365809         0.108864         1.439167
 H        -0.844898        -0.622553         1.141371
 H        -0.531335         0.802286         0.141847
 H        -0.382225        -0.883088        -0.704746
 H         4.131432        -1.273756         0.252091
 H         1.550896        -2.658426        -0.099401
 H         0.776797        -2.671603         2.409283
 H         2.336115        -3.524651         2.011617
 H         2.338990        -1.921369         4.037194
 H         3.653415        -1.990082         2.880122
 H         2.673274         1.166259         1.461887
