19
Iteration:  1274charge 0 multiplicity 1
 C        -0.185644        -0.279629         0.277313
 C         1.270871        -0.405922         0.491870
 O         2.243967        -0.205511        -0.668292
 C         3.054434        -0.962400         0.355272
 C         1.953063        -1.910615         0.663296
 C         1.748933        -2.592322         2.022541
 C         2.468792        -1.670749         3.078515
 O         2.299885        -0.248408         2.812272
 C         2.528729         0.094312         1.459537
 H        -0.699867        -0.298565         1.263952
 H        -0.579500         0.566740        -0.349864
 H        -0.687054        -1.192549        -0.132276
 H         4.113108        -1.084861         0.270585
 H         1.677674        -2.337767        -0.285297
 H         0.752240        -2.803332         2.273226
 H         2.173616        -3.597779         2.084788
 H         2.196655        -1.803864         4.188298
 H         3.448500        -1.853767         3.003024
 H         2.770965         1.190795         1.383042
