19
Iteration:  3903charge 0 multiplicity 1
 C        -0.248182        -0.375989         0.242579
 C         1.207232        -0.584580         0.328268
 O         2.260312        -0.119591        -0.629708
 C         3.067909        -0.796171         0.349535
 C         1.962598        -1.949029         0.572050
 C         1.685916        -2.527126         2.149082
 C         2.501459        -1.609998         3.194796
 O         2.492966        -0.249174         2.805468
 C         2.413186         0.004177         1.458329
 H        -0.992385        -0.913440         0.886890
 H        -0.409151         0.667788         0.503281
 H        -0.553029        -0.663056        -0.793878
 H         4.140981        -1.017232         0.157564
 H         1.778978        -2.772931        -0.141247
 H         0.633869        -2.357755         2.311509
 H         1.955761        -3.527245         2.134514
 H         2.120206        -1.740833         4.288673
 H         3.659515        -1.974860         3.239623
 H         2.475136         1.060315         1.248048
