19
Iteration:  1711charge 0 multiplicity 1
 C        -0.150109         0.056702         0.279715
 C         1.251152        -0.607100         0.397011
 O         2.170258        -0.340656        -0.714345
 C         3.077348        -0.845069         0.526821
 C         2.027040        -1.919899         0.619487
 C         1.898671        -2.612360         1.991366
 C         2.597497        -1.639442         3.103599
 O         2.231451        -0.332221         2.811159
 C         2.275496        -0.026669         1.474038
 H        -0.816813         0.044838         1.201725
 H         0.026366         1.164591         0.082234
 H        -0.843380        -0.452642        -0.455305
 H         4.114279        -0.728412         0.236935
 H         1.923985        -2.565645        -0.219477
 H         0.865292        -2.585175         2.334266
 H         2.458729        -3.551447         2.200754
 H         2.173259        -1.940275         4.097160
 H         3.634844        -1.778816         3.183990
 H         2.242643         1.062990         1.265265
