19
Iteration:  3255
 C        -0.178307        -0.093173         0.290857
 C         1.244233        -0.483014         0.467962
 O         2.305174        -0.230811        -0.662170
 C         3.071667        -0.893332         0.373010
 C         1.897462        -1.941240         0.630420
 C         2.008985        -2.682127         2.004425
 C         2.551700        -1.680827         3.068139
 O         2.136786        -0.265849         2.812291
 C         2.290322         0.090578         1.514574
 H        -0.576021        -0.421376         1.273837
 H        -0.157708         1.029706         0.246082
 H        -0.834903        -0.590563        -0.510619
 H         4.102336        -1.092587         0.075440
 H         1.720276        -2.563702        -0.276461
 H         1.010070        -3.222791         2.329102
 H         2.680327        -3.462870         1.835405
 H         2.106230        -2.056784         4.062239
 H         3.736655        -1.900748         3.180002
 H         2.437757         1.218665         1.374538
