19
Iteration:  4165
 C        -0.180589        -0.004059         0.176463
 C         1.275815        -0.511414         0.472367
 O         2.157779        -0.360333        -0.641005
 C         3.026443        -0.949565         0.384214
 C         1.959095        -1.989323         0.710614
 C         1.989697        -2.618474         2.129913
 C         2.661505        -1.576229         3.045833
 O         2.155361        -0.278604         2.767004
 C         2.279558         0.043824         1.459990
 H        -0.896155        -0.151327         0.950123
 H         0.044517         1.063875         0.139621
 H        -0.490666        -0.341405        -0.810400
 H         4.100536        -1.002118         0.172170
 H         1.693735        -2.685975        -0.090319
 H         0.940598        -2.782817         2.373407
 H         2.599296        -3.479662         2.125978
 H         2.401139        -1.835364         4.136806
 H         3.779842        -1.568140         3.201033
 H         2.601983         1.050086         1.416477
