19
Iteration:  2466
 C        -0.196575        -0.245090         0.253284
 C         1.259349        -0.497532         0.432973
 O         2.288713        -0.134518        -0.521932
 C         3.026084        -0.915552         0.490879
 C         1.909224        -1.914096         0.530337
 C         1.761530        -2.643498         1.970107
 C         2.569286        -1.685626         2.996391
 O         2.314174        -0.230724         2.872217
 C         2.408051         0.046826         1.465266
 H        -0.866738        -0.168151         1.153398
 H        -0.362478         0.715220        -0.291232
 H        -0.665958        -1.028046        -0.362256
 H         4.083903        -1.319597         0.321728
 H         1.844286        -2.614402        -0.321702
 H         0.573480        -2.635996         2.247516
 H         2.196144        -3.577514         1.895488
 H         2.337561        -1.826359         4.036504
 H         3.642429        -1.782229         2.878394
 H         2.664798         1.130799         1.358626
