19
Iteration:  3132charge 0 multiplicity 1
 C        -0.177496        -0.167765         0.309460
 C         1.244226        -0.542118         0.458802
 O         2.235295        -0.169381        -0.642316
 C         3.074614        -0.826928         0.364218
 C         2.051289        -1.951013         0.596904
 C         1.886642        -2.567010         1.972179
 C         2.461874        -1.739403         3.133065
 O         2.250678        -0.301640         2.780187
 C         2.345905         0.069334         1.479873
 H        -0.664936        -0.583251         1.284591
 H        -0.237686         0.950284         0.257584
 H        -0.772937        -0.760195        -0.396746
 H         4.192309        -0.969739         0.389618
 H         1.865622        -2.715647        -0.224929
 H         0.802227        -2.609648         2.322986
 H         2.369149        -3.499042         1.911012
 H         1.964246        -1.935111         4.074904
 H         3.404978        -1.956135         3.260485
 H         2.591602         1.106141         1.320227
