19
Iteration:  2728charge 0 multiplicity 1
 C        -0.186744        -0.049963         0.361212
 C         1.293790        -0.625366         0.436781
 O         2.226761        -0.270917        -0.668246
 C         3.123328        -0.815220         0.414727
 C         2.017868        -1.935303         0.612736
 C         1.902946        -2.621474         1.978555
 C         2.457029        -1.677250         3.076810
 O         2.262472        -0.278157         2.832787
 C         2.232447         0.036923         1.435007
 H        -0.704516        -0.332747         1.294586
 H        -0.047201         1.013249         0.466448
 H        -0.450361        -0.191528        -0.644854
 H         4.258031        -0.671174         0.392298
 H         2.009066        -2.668704        -0.227532
 H         0.867699        -2.795863         1.996828
 H         2.361111        -3.698871         1.895404
 H         1.854107        -1.989115         3.945767
 H         3.450971        -1.939010         3.335151
 H         2.416714         1.096545         1.306490
