19
Iteration:  4510charge 0 multiplicity 1
 C        -0.154361        -0.101221         0.381543
 C         1.309856        -0.496019         0.446055
 O         2.209881        -0.358348        -0.712764
 C         3.046107        -0.891313         0.458033
 C         1.968093        -1.855231         0.673534
 C         1.966502        -2.627739         2.017170
 C         2.520608        -1.635552         3.052891
 O         2.129132        -0.280226         2.796427
 C         2.341055         0.059954         1.340441
 H        -0.504411         0.064071         1.433496
 H        -0.267002         0.930149        -0.021256
 H        -0.683141        -0.887976        -0.201153
 H         4.115209        -1.208950         0.502799
 H         1.821953        -2.645595        -0.068865
 H         0.909801        -2.936863         2.386096
 H         2.526522        -3.550078         2.003976
 H         2.214882        -1.668092         4.109989
 H         3.600513        -1.641016         3.174281
 H         2.792621         1.113170         1.083455
