19
Iteration:  1636charge 0 multiplicity 1
 C        -0.162210        -0.234924         0.334155
 C         1.305512        -0.584170         0.496470
 O         2.271750        -0.226836        -0.688369
 C         3.114018        -0.749921         0.381261
 C         2.007473        -1.900761         0.619838
 C         1.627260        -2.573141         2.032600
 C         2.470584        -1.693444         3.075792
 O         2.389385        -0.280516         2.793392
 C         2.306703         0.059936         1.424808
 H        -0.658376        -0.478961         1.225049
 H        -0.470166         0.780478         0.150700
 H        -0.639734        -0.746747        -0.496571
 H         4.204804        -0.897570         0.312417
 H         2.049420        -2.657535        -0.107185
 H         0.625141        -2.568929         2.524690
 H         2.046993        -3.636070         2.197536
 H         2.254783        -1.899134         4.106130
 H         3.555578        -2.042899         2.881102
 H         2.360000         1.174059         1.326405
