19
Iteration:  2165charge 0 multiplicity 1
 C        -0.115710        -0.301016         0.301308
 C         1.299987        -0.450774         0.458159
 O         2.300748        -0.163666        -0.610003
 C         3.038989        -0.947119         0.495432
 C         1.868838        -1.855555         0.595116
 C         1.746266        -2.593309         2.002376
 C         2.507993        -1.725318         3.036480
 O         2.372703        -0.225668         2.823815
 C         2.350697         0.078940         1.430374
 H        -0.625110        -0.718647         1.214808
 H        -0.608295         0.680629         0.047341
 H        -0.578360        -0.828716        -0.552298
 H         4.009881        -1.228253         0.145021
 H         1.564417        -2.515434        -0.261113
 H         0.586607        -2.788426         2.279691
 H         2.118044        -3.557643         1.764443
 H         2.195283        -1.772066         4.073027
 H         3.558228        -1.834989         2.820519
 H         2.581962         1.119750         1.406325
