19
Iteration:  1554charge 0 multiplicity 1
 C        -0.157525        -0.085921         0.264852
 C         1.283363        -0.452541         0.465781
 O         2.213274        -0.294155        -0.598055
 C         3.015140        -0.970879         0.467706
 C         1.890776        -1.896878         0.678489
 C         1.931893        -2.625653         1.990712
 C         2.582635        -1.641796         3.052075
 O         2.179233        -0.279182         2.768572
 C         2.360563         0.081178         1.441466
 H        -0.800387        -0.587192         1.063027
 H        -0.135652         1.017763         0.066374
 H        -0.338228        -0.784799        -0.582590
 H         4.110328        -1.252550         0.456768
 H         1.510300        -2.556770        -0.182127
 H         0.945294        -2.949648         2.296593
 H         2.542176        -3.487288         1.879926
 H         2.444189        -1.785815         4.157224
 H         3.665088        -1.566585         2.904821
 H         2.819244         1.026827         1.066465
