19
Iteration:  2272charge 0 multiplicity 1
 C        -0.147280        -0.213358         0.216352
 C         1.292765        -0.420976         0.484823
 O         2.276969        -0.206753        -0.686332
 C         3.040595        -0.916687         0.388940
 C         1.836199        -1.820360         0.692026
 C         1.831014        -2.605434         2.017245
 C         2.557255        -1.726442         3.068354
 O         2.186925        -0.334851         2.865170
 C         2.408480         0.077891         1.460123
 H        -0.638358        -0.221104         1.248757
 H        -0.099194         0.843244        -0.156076
 H        -0.546762        -1.022169        -0.409796
 H         4.122061        -1.198478         0.191652
 H         1.563992        -2.514442        -0.084557
 H         0.879519        -2.913085         2.416842
 H         2.527331        -3.494176         1.527495
 H         2.416085        -1.855311         4.141958
 H         3.720809        -1.767881         3.044261
 H         2.730170         1.105378         1.469685
