19
Iteration:  4987
 C        -0.187054        -0.308861         0.188044
 C         1.283088        -0.464363         0.497968
 O         2.218746        -0.200210        -0.643750
 C         3.060760        -0.821093         0.390113
 C         1.972994        -1.843965         0.623824
 C         1.784244        -2.562054         1.997648
 C         2.505466        -1.785525         3.061192
 O         2.311374        -0.298700         2.892713
 C         2.409631         0.100829         1.522488
 H        -0.540745         0.488324         0.838060
 H        -0.380090        -0.130819        -0.853458
 H        -0.767677        -1.172011         0.489471
 H         4.096828        -1.076345         0.049227
 H         1.652072        -2.371440        -0.311532
 H         0.636721        -2.639584         2.281614
 H         2.337422        -3.476491         1.851080
 H         2.223414        -1.797561         4.063190
 H         3.603985        -1.973079         3.019929
 H         2.642107         1.144266         1.404670
