19
Iteration:  4153
 C        -0.129470        -0.009656         0.196737
 C         1.205256        -0.581618         0.493545
 O         2.196236        -0.282070        -0.579722
 C         3.021970        -0.980147         0.374132
 C         1.925705        -2.061064         0.657361
 C         2.017882        -2.647368         2.119446
 C         2.613906        -1.543596         3.059861
 O         2.104890        -0.227774         2.813885
 C         2.402424         0.066704         1.401826
 H        -0.869112        -0.447865         0.840237
 H        -0.183497         1.047595         0.289582
 H        -0.504732        -0.190609        -0.801296
 H         4.021934        -1.164203         0.050533
 H         1.806893        -2.675566        -0.225647
 H         1.079012        -2.848463         2.612230
 H         2.366152        -3.661847         2.123797
 H         2.459118        -1.662191         4.181058
 H         3.641175        -1.482861         2.549551
 H         2.598672         1.109378         1.189362
