19
Iteration:   696
 C        -0.132668         0.010412         0.429516
 C         1.271393        -0.619368         0.463347
 O         2.244142        -0.306293        -0.723955
 C         3.119892        -0.834245         0.396109
 C         2.016371        -1.993252         0.634020
 C         1.842963        -2.569626         2.038152
 C         2.507814        -1.683631         3.086373
 O         2.266204        -0.294651         2.769263
 C         2.210874         0.037655         1.385430
 H        -0.418761         0.144258         1.473939
 H         0.079150         0.897603        -0.163044
 H        -0.875814        -0.480344        -0.220031
 H         4.174876        -0.751194         0.222012
 H         1.841895        -2.638512        -0.249340
 H         0.820338        -2.638880         2.334417
 H         2.170004        -3.641816         2.216895
 H         2.005273        -1.860888         4.085430
 H         3.616925        -1.913490         3.171008
 H         2.314555         1.105177         1.386321
