19
Iteration:  4310
 C        -0.142053        -0.128570         0.264216
 C         1.235945        -0.595095         0.421403
 O         2.157886        -0.237832        -0.685187
 C         3.101589        -0.937977         0.379751
 C         1.898676        -1.961078         0.646086
 C         1.949873        -2.559166         2.061997
 C         2.533589        -1.601638         3.102718
 O         2.202077        -0.211927         2.869892
 C         2.416564        -0.012546         1.390028
 H        -0.723089        -0.425117         1.121879
 H        -0.151587         0.959665         0.127152
 H        -0.642048        -0.448101        -0.640075
 H         4.183484        -1.368600         0.230588
 H         1.889043        -2.831139        -0.048709
 H         0.884514        -2.593710         2.334401
 H         2.503592        -3.413076         2.186397
 H         2.088730        -1.682341         4.103667
 H         3.684354        -1.733718         3.133187
 H         2.521211         1.074367         1.483389
