19
Iteration:  4141charge 0 multiplicity 1
 C        -0.147398        -0.055779         0.254315
 C         1.259842        -0.583642         0.518255
 O         2.252366        -0.240446        -0.673243
 C         3.036277        -0.992653         0.421194
 C         1.890147        -2.001547         0.691331
 C         1.908334        -2.610983         2.105591
 C         2.652551        -1.548251         2.994219
 O         2.122300        -0.191553         2.810090
 C         2.310463        -0.015743         1.401130
 H        -0.878701        -0.634599         0.814193
 H        -0.215231         0.951798         0.527586
 H        -0.226958        -0.285803        -0.787255
 H         4.042608        -1.192924         0.181634
 H         1.667483        -2.787239        -0.010669
 H         0.900886        -2.898828         2.288812
 H         2.720772        -3.336801         2.189103
 H         2.638260        -1.891037         4.063989
 H         3.813439        -1.566979         2.940719
 H         2.542826         1.048003         1.155467
