19
Iteration:   554
 C        -0.223390        -0.210446         0.257053
 C         1.264262        -0.452309         0.531404
 O         2.315720        -0.234621        -0.696083
 C         3.109616        -1.027493         0.370687
 C         1.758183        -1.847022         0.684956
 C         1.870775        -2.508431         2.050437
 C         2.559956        -1.616673         3.006392
 O         2.301146        -0.270496         2.830463
 C         2.402040         0.012146         1.483734
 H        -0.703513        -0.852170         0.934301
 H        -0.608178         0.764407         0.313508
 H        -0.481998        -0.418884        -0.753018
 H         4.030236        -1.352657         0.024973
 H         1.341048        -2.539731        -0.057676
 H         0.850698        -2.647166         2.481658
 H         2.211203        -3.589109         2.032946
 H         2.212258        -1.972766         4.000952
 H         3.544121        -1.704223         2.951750
 H         2.776103         0.991355         1.489706
