19
Iteration:  1332charge 0 multiplicity 1
 C        -0.263222        -0.087412         0.225185
 C         1.240349        -0.573193         0.458293
 O         2.255855        -0.283178        -0.643863
 C         3.114259        -0.843487         0.420854
 C         1.971931        -1.952103         0.706617
 C         1.802244        -2.582841         2.096845
 C         2.559028        -1.700193         3.011190
 O         2.299354        -0.285084         2.807320
 C         2.354141         0.071113         1.420389
 H        -0.743400         0.024562         1.183589
 H        -0.132872         0.901469        -0.222684
 H        -0.700573        -0.771113        -0.499310
 H         4.204772        -0.768611         0.286756
 H         1.757509        -2.672299        -0.128047
 H         0.761588        -2.635994         2.383690
 H         2.290865        -3.515411         2.124827
 H         2.344868        -1.944965         4.002801
 H         3.545048        -1.860226         2.853148
 H         2.378576         1.137111         1.512448
