19
Iteration:  1365
 C        -0.142272        -0.160813         0.245113
 C         1.365238        -0.381369         0.456976
 O         2.254709        -0.202583        -0.675979
 C         3.048447        -1.017030         0.438736
 C         1.743895        -1.936691         0.665022
 C         1.902254        -2.577086         2.110004
 C         2.593069        -1.617132         3.016466
 O         2.170605        -0.274337         2.845191
 C         2.411411         0.011050         1.431983
 H        -0.715618        -0.723616         0.971723
 H        -0.431360         0.888265         0.145948
 H        -0.583860        -0.717742        -0.661423
 H         4.097438        -1.200009         0.125748
 H         1.329949        -2.708091        -0.056207
 H         0.999201        -3.054385         2.414980
 H         2.598229        -3.331837         1.967475
 H         2.434181        -2.001893         3.975547
 H         3.661569        -1.634729         2.911862
 H         2.670786         1.059212         1.313167
