19
Iteration:  2777charge 0 multiplicity 1
 C        -0.233958        -0.231938         0.319322
 C         1.312837        -0.471087         0.470239
 O         2.342017        -0.170628        -0.632666
 C         3.055007        -0.925882         0.441291
 C         1.876990        -1.889295         0.584089
 C         1.868841        -2.552382         1.964888
 C         2.529399        -1.676219         3.089656
 O         2.219096        -0.287540         2.812928
 C         2.350419         0.027912         1.451954
 H        -0.580604        -0.867464         1.128186
 H        -0.547527         0.831937         0.522342
 H        -0.422700        -0.578565        -0.739125
 H         4.058046        -1.195318         0.255842
 H         1.703775        -2.471126        -0.328502
 H         0.825573        -2.823420         2.294646
 H         2.368260        -3.437848         1.890962
 H         2.154779        -2.100419         4.020741
 H         3.670733        -1.703020         3.076506
 H         2.611041         1.097280         1.322548
