19
Iteration:   561charge 0 multiplicity 1
 C        -0.159686        -0.247281         0.258740
 C         1.282182        -0.430070         0.441580
 O         2.268031        -0.241513        -0.669305
 C         3.027326        -1.024377         0.363789
 C         1.793657        -1.862896         0.662872
 C         1.807802        -2.517903         2.091677
 C         2.574775        -1.679243         3.000766
 O         2.313513        -0.236065         2.874687
 C         2.406089         0.059057         1.477802
 H        -0.816404        -0.884595         0.906115
 H        -0.432547         0.844656         0.406881
 H        -0.367905        -0.504310        -0.831763
 H         4.116614        -1.307426         0.114927
 H         1.473696        -2.533736        -0.163441
 H         0.774415        -2.559722         2.413109
 H         2.229799        -3.584198         2.012044
 H         2.357437        -1.941557         4.055633
 H         3.775443        -1.813952         2.871698
 H         2.732893         1.152180         1.548744
