19
Iteration:  2452charge 0 multiplicity 1
 C        -0.165528        -0.143560         0.217352
 C         1.282434        -0.519017         0.502861
 O         2.202261        -0.215552        -0.646479
 C         3.082184        -0.850962         0.432383
 C         1.978342        -1.967106         0.654585
 C         1.804343        -2.536870         1.975381
 C         2.564624        -1.749469         3.010035
 O         2.276234        -0.305395         2.851335
 C         2.323690         0.063768         1.528449
 H        -0.545311        -0.140903         1.253803
 H        -0.194523         0.887529        -0.234977
 H        -0.623693        -0.895184        -0.514248
 H         4.141427        -0.742802         0.148182
 H         1.841311        -2.546791        -0.316192
 H         0.752585        -2.525585         2.235896
 H         1.984159        -3.656464         2.136287
 H         2.240634        -2.084300         4.048792
 H         3.656055        -1.911584         2.934482
 H         2.582780         1.177821         1.366446
