19
Iteration:  3569charge 0 multiplicity 1
 C        -0.173912        -0.185932         0.198835
 C         1.225033        -0.582293         0.490127
 O         2.292481        -0.260149        -0.625207
 C         3.091152        -0.820723         0.494956
 C         1.892815        -1.894748         0.640168
 C         1.824389        -2.513788         1.970163
 C         2.611563        -1.688287         3.030155
 O         2.257036        -0.288027         2.871701
 C         2.282857         0.026085         1.458263
 H        -0.678408        -0.011832         1.174451
 H        -0.220524         0.852190        -0.301691
 H        -0.758127        -0.962725        -0.402436
 H         4.186596        -1.059955         0.356919
 H         1.843232        -2.528881        -0.290320
 H         0.695130        -2.734138         2.408848
 H         2.382542        -3.519958         1.856388
 H         2.398037        -1.839531         4.055642
 H         3.706100        -1.788736         2.792668
 H         2.538037         1.068804         1.204388
