19
Iteration:  2972charge 0 multiplicity 1
 C        -0.246896        -0.274884         0.206697
 C         1.256579        -0.463458         0.501174
 O         2.280175        -0.163661        -0.647292
 C         3.040005        -0.873968         0.417910
 C         1.932772        -1.899723         0.613394
 C         1.826673        -2.530142         1.970888
 C         2.541540        -1.709425         3.042500
 O         2.309749        -0.291076         2.914415
 C         2.393503         0.027999         1.471565
 H        -0.772601        -0.877990         0.884734
 H        -0.493652         0.789662         0.197862
 H        -0.438926        -0.786368        -0.753302
 H         4.084282        -1.027890         0.182946
 H         1.661383        -2.341938        -0.297990
 H         0.761353        -2.724969         2.233636
 H         2.419561        -3.591372         2.073808
 H         2.127780        -1.930213         4.064792
 H         3.627600        -1.869666         3.092282
 H         2.590295         1.114426         1.546166
