19
Iteration:  1824
 C        -0.156246        -0.177651         0.316352
 C         1.306288        -0.625338         0.534530
 O         2.170175        -0.241005        -0.638695
 C         3.146688        -0.792463         0.391366
 C         2.066650        -2.019829         0.593647
 C         1.708814        -2.527341         2.044636
 C         2.479256        -1.712207         3.079411
 O         2.350648        -0.270504         2.809713
 C         2.318631         0.087828         1.393678
 H        -0.804424        -0.393387         1.149628
 H        -0.060307         0.900651         0.214432
 H        -0.559763        -0.494018        -0.687480
 H         4.253250        -0.708247         0.109613
 H         1.766155        -2.426166        -0.360100
 H         0.587189        -2.472849         2.007219
 H         2.087884        -3.665258         2.081116
 H         2.027375        -1.774071         4.018680
 H         3.616334        -1.969310         3.229254
 H         2.249936         1.174661         1.445068
