19
Iteration:  1990
 C        -0.142087        -0.267435         0.245649
 C         1.289490        -0.464208         0.448569
 O         2.243588        -0.128096        -0.627792
 C         2.995711        -0.919800         0.396531
 C         1.908474        -1.947361         0.603411
 C         1.744162        -2.575073         2.021014
 C         2.476890        -1.659477         3.073221
 O         2.349508        -0.301111         2.823267
 C         2.458375         0.063759         1.485847
 H        -0.740453        -0.618295         1.114798
 H        -0.526610         0.768813         0.231362
 H        -0.529215        -0.914976        -0.522886
 H         4.049221        -1.051125         0.107030
 H         1.728924        -2.594949        -0.315729
 H         0.730428        -2.560728         2.335758
 H         2.377149        -3.478035         2.198954
 H         2.200949        -1.784067         4.154130
 H         3.552673        -1.952450         3.167879
 H         2.830469         1.082311         1.293790
