19
Iteration:  2023
 C        -0.188187        -0.029999         0.348286
 C         1.265662        -0.569341         0.460955
 O         2.266243        -0.355394        -0.657737
 C         3.041887        -0.760060         0.434944
 C         2.090712        -1.999185         0.585522
 C         1.776547        -2.557666         1.976185
 C         2.492793        -1.673463         3.068766
 O         2.312790        -0.320705         2.826379
 C         2.292152         0.032347         1.452816
 H        -0.650436        -0.482250         1.260619
 H        -0.188126         1.095939         0.325602
 H        -0.719779        -0.322732        -0.553668
 H         4.090900        -0.686872         0.146361
 H         2.023628        -2.582817        -0.393807
 H         0.665864        -2.692273         2.219987
 H         2.173342        -3.627243         2.257482
 H         2.084626        -1.723995         4.117987
 H         3.570608        -1.805308         2.911307
 H         2.362952         1.114128         1.264832
