19
Iteration:  2859
 C        -0.248389        -0.172779         0.181111
 C         1.268489        -0.469885         0.439620
 O         2.286825        -0.158488        -0.620468
 C         2.984229        -0.859361         0.497324
 C         1.979120        -1.943493         0.585297
 C         1.885388        -2.624028         1.978100
 C         2.512800        -1.697654         3.084998
 O         2.328660        -0.277957         2.844291
 C         2.333122         0.043205         1.548334
 H        -0.863817        -0.129117         1.141358
 H        -0.423633         0.761536        -0.401274
 H        -0.761076        -1.037929        -0.295115
 H         4.085412        -1.041798         0.257962
 H         1.678193        -2.640522        -0.268461
 H         0.805645        -2.908149         2.118643
 H         2.463532        -3.668472         1.877745
 H         2.335916        -2.086830         4.107034
 H         3.674628        -1.890687         2.851273
 H         2.517078         1.109988         1.442837
