19
Iteration:  2945charge 0 multiplicity 1
 C        -0.139102        -0.157408         0.350588
 C         1.288505        -0.560250         0.447676
 O         2.268829        -0.188087        -0.615706
 C         3.078935        -0.840856         0.506059
 C         1.974712        -1.994937         0.647321
 C         1.844993        -2.627281         1.949461
 C         2.482595        -1.704254         2.968643
 O         2.257200        -0.240818         2.803820
 C         2.300082         0.074085         1.444264
 H        -0.789298        -0.724683         1.111639
 H        -0.230444         0.920036         0.505658
 H        -0.610597        -0.571750        -0.563256
 H         4.157238        -0.982707         0.239258
 H         1.792131        -2.527021        -0.359342
 H         0.811912        -2.909752         2.118458
 H         2.511563        -3.409018         2.001931
 H         2.068655        -1.833268         3.939697
 H         3.541250        -1.742007         2.949416
 H         2.297638         1.164048         1.464563
