19
Iteration:  1643
 C        -0.153179        -0.243831         0.330347
 C         1.281360        -0.494866         0.436146
 O         2.264449        -0.235963        -0.724672
 C         3.119435        -0.790976         0.405953
 C         1.976916        -1.910479         0.637319
 C         1.717470        -2.548719         2.077466
 C         2.494550        -1.696484         3.031909
 O         2.336944        -0.315195         2.810721
 C         2.342119         0.070016         1.454943
 H        -0.690363        -0.546288         1.283758
 H        -0.524716         0.809436         0.195542
 H        -0.589894        -0.963569        -0.366458
 H         4.154479        -0.976795         0.320189
 H         1.830006        -2.596844        -0.227699
 H         0.660425        -2.437695         2.328310
 H         2.037004        -3.564386         2.135185
 H         2.107117        -1.813278         4.102962
 H         3.483937        -2.034405         3.029300
 H         2.505970         1.117975         1.511228
