19
Iteration:  3166
 C        -0.175617        -0.353994         0.220410
 C         1.311436        -0.501139         0.590876
 O         2.276137        -0.150809        -0.623553
 C         3.048414        -0.839757         0.400224
 C         1.934582        -1.893823         0.614493
 C         1.729603        -2.532624         1.983976
 C         2.523288        -1.753491         2.979586
 O         2.342617        -0.270316         2.844478
 C         2.372089         0.116304         1.511957
 H        -0.849430        -0.709449         1.108825
 H        -0.684145         0.617138        -0.065707
 H        -0.388994        -0.950880        -0.695394
 H         4.173820        -0.922456         0.321414
 H         1.742207        -2.563030        -0.283962
 H         0.581041        -2.684522         2.208436
 H         1.968494        -3.540599         2.039089
 H         2.317527        -1.961248         4.063133
 H         3.590556        -1.843239         2.830565
 H         2.662914         1.194558         1.509631
