19
Iteration:  4427
 C        -0.208883        -0.406909         0.355414
 C         1.292168        -0.479615         0.543400
 O         2.276525        -0.269269        -0.750800
 C         3.098316        -0.858553         0.405995
 C         1.931441        -1.915972         0.665007
 C         1.720176        -2.516533         2.042083
 C         2.425476        -1.698637         3.071580
 O         2.448669        -0.190039         2.810685
 C         2.383774         0.169370         1.446674
 H        -0.913922        -0.396246         1.207838
 H        -0.444194         0.607770        -0.146352
 H        -0.637208        -1.006506        -0.495593
 H         4.172419        -1.115192         0.255992
 H         1.621026        -2.658211        -0.103669
 H         0.643352        -2.568442         2.045733
 H         2.263044        -3.561872         1.862854
 H         1.908197        -1.699663         4.069220
 H         3.430858        -2.138395         3.066190
 H         2.588261         1.163381         1.105681
