19
Iteration:  2145
 C        -0.203076        -0.222668         0.260138
 C         1.244031        -0.550499         0.432929
 O         2.257781        -0.169909        -0.659462
 C         3.085120        -0.838606         0.388952
 C         1.976491        -1.931310         0.608620
 C         1.732621        -2.445522         1.999902
 C         2.543791        -1.727067         3.064584
 O         2.364910        -0.335279         2.871216
 C         2.376457         0.006697         1.481629
 H        -0.731877        -0.375261         1.187997
 H        -0.361192         0.808639        -0.059570
 H        -0.722490        -0.785703        -0.529287
 H         4.120389        -0.842644         0.226307
 H         1.790251        -2.707886        -0.194655
 H         0.617770        -2.457463         2.295649
 H         1.939366        -3.479430         2.330761
 H         2.043232        -1.924198         4.046124
 H         3.641203        -1.926253         3.131200
 H         2.576137         1.070418         1.518872
