19
Iteration:  1501charge 0 multiplicity 1
 C        -0.181944        -0.114448         0.296489
 C         1.265881        -0.588627         0.433122
 O         2.175459        -0.245851        -0.642283
 C         3.106426        -0.867963         0.485582
 C         1.996388        -1.943606         0.681397
 C         1.815647        -2.534554         2.047418
 C         2.554034        -1.705845         3.032933
 O         2.257548        -0.335669         2.740263
 C         2.348897         0.098969         1.418403
 H        -0.609871         0.093860         1.307989
 H        -0.050890         0.844380        -0.256096
 H        -0.652889        -0.851395        -0.331099
 H         4.161813        -1.024804         0.279897
 H         1.967292        -2.629910        -0.160697
 H         0.750899        -2.495352         2.458161
 H         2.238528        -3.593817         2.112661
 H         2.118450        -1.745940         4.093346
 H         3.732215        -1.784314         3.249194
 H         2.482010         1.148801         1.116249
