19
Iteration:  1066charge 0 multiplicity 1
 C        -0.197082        -0.263355         0.385102
 C         1.301162        -0.464517         0.427251
 O         2.265987        -0.198167        -0.611127
 C         3.040936        -0.936567         0.410068
 C         1.920682        -1.878992         0.664363
 C         1.836473        -2.611645         1.991557
 C         2.438826        -1.651466         3.066998
 O         2.236572        -0.240861         2.737170
 C         2.523749         0.062944         1.413525
 H        -0.478091        -0.158376         1.406355
 H        -0.287487         0.636965        -0.275203
 H        -0.915490        -1.003821        -0.001929
 H         4.044046        -1.243593         0.200491
 H         1.692472        -2.567426        -0.175428
 H         0.735481        -2.941915         2.161504
 H         2.327294        -3.564408         1.938773
 H         2.051604        -1.673321         4.142967
 H         3.496290        -1.878606         3.042234
 H         2.851022         1.137107         1.419064
