19
Iteration:  3600
 C        -0.124195        -0.005794         0.173857
 C         1.237483        -0.564557         0.480154
 O         2.233566        -0.214716        -0.630647
 C         3.063174        -0.878637         0.438566
 C         1.964204        -2.013882         0.693503
 C         1.917355        -2.648517         2.097499
 C         2.622609        -1.628389         2.987610
 O         2.107541        -0.307140         2.836025
 C         2.267389         0.044880         1.434016
 H        -0.735327        -0.430243         1.019375
 H         0.049966         1.061876         0.438366
 H        -0.551407        -0.434352        -0.749331
 H         4.170097        -1.048404         0.140616
 H         1.763642        -2.749465        -0.138838
 H         0.972011        -2.793989         2.541533
 H         2.525869        -3.480135         2.038695
 H         2.583106        -1.919201         4.056630
 H         3.717256        -1.761826         2.662691
 H         2.592412         1.032767         1.229204
