19
Iteration:  4772
 C        -0.175824        -0.259903         0.163477
 C         1.272065        -0.552229         0.484377
 O         2.197090        -0.134969        -0.593457
 C         3.044595        -0.834071         0.423033
 C         2.017687        -2.021033         0.654776
 C         1.646417        -2.502937         2.048047
 C         2.604521        -1.697258         3.026321
 O         2.411405        -0.249183         2.804466
 C         2.321805         0.047228         1.538470
 H        -0.774340        -0.745503         0.935690
 H        -0.564319         0.773493         0.073631
 H        -0.314259        -0.848027        -0.740899
 H         4.159011        -0.953728         0.271639
 H         1.926601        -2.610728        -0.244045
 H         0.630174        -2.346599         2.269364
 H         1.740040        -3.661836         2.163377
 H         2.537671        -2.106667         4.052989
 H         3.576546        -1.842001         2.562827
 H         2.509010         1.125974         1.408220
