19
Iteration:  3348
 C        -0.270413        -0.340065         0.173064
 C         1.266172        -0.492911         0.383996
 O         2.299969        -0.077324        -0.598811
 C         3.073173        -0.851491         0.475860
 C         1.969262        -1.908432         0.606119
 C         1.724892        -2.480558         2.048072
 C         2.505688        -1.733741         3.041311
 O         2.447024        -0.288590         2.858897
 C         2.283614         0.008659         1.475830
 H        -0.551038        -0.647168         1.240926
 H        -0.576171         0.717021         0.028525
 H        -0.785840        -1.115105        -0.416450
 H         4.182477        -0.975331         0.275339
 H         1.844213        -2.619853        -0.224571
 H         0.653928        -2.595481         2.228789
 H         2.190829        -3.597042         1.977447
 H         2.257003        -1.929583         4.083396
 H         3.726081        -2.033564         3.131289
 H         2.417734         1.032829         1.248785
