19
Iteration:  2293
 C        -0.265788        -0.168083         0.229984
 C         1.327430        -0.444999         0.478232
 O         2.309438        -0.156928        -0.599970
 C         3.063822        -0.868227         0.388435
 C         1.909148        -1.952840         0.608446
 C         1.820727        -2.552941         2.069074
 C         2.566381        -1.718444         3.004945
 O         2.254400        -0.321276         2.817325
 C         2.374126         0.011090         1.480598
 H        -0.913850        -0.173715         1.136551
 H        -0.526146         0.775908        -0.313234
 H        -0.556186        -1.051492        -0.319309
 H         4.153352        -1.165773         0.201196
 H         1.693720        -2.619044        -0.200165
 H         0.752035        -2.542009         2.270906
 H         2.170017        -3.743486         2.182259
 H         2.265348        -1.859950         4.055722
 H         3.679472        -1.909773         3.148379
 H         2.647668         1.068087         1.428588
