19
Iteration:   705charge 0 multiplicity 1
 C        -0.078023        -0.027725         0.386746
 C         1.261280        -0.650107         0.511096
 O         2.211221        -0.318464        -0.648655
 C         3.096333        -0.822680         0.369782
 C         1.983064        -2.002802         0.591635
 C         1.803581        -2.552138         2.046514
 C         2.524521        -1.677537         3.069806
 O         2.280745        -0.330235         2.741843
 C         2.265135         0.116212         1.406301
 H        -0.712486         0.249797         1.243743
 H         0.067040         1.031110         0.113429
 H        -0.738764        -0.710191        -0.245854
 H         4.137677        -0.798205         0.382594
 H         2.039443        -2.735774        -0.232171
 H         0.817270        -2.496212         2.310474
 H         2.277132        -3.462308         1.979936
 H         2.030912        -1.821949         4.079023
 H         3.494089        -1.859995         3.231805
 H         2.378476         1.163317         1.243127
