19
Iteration:   596charge 0 multiplicity 1
 C        -0.238581        -0.167798         0.256591
 C         1.273064        -0.609141         0.438922
 O         2.239888        -0.280385        -0.599831
 C         3.060004        -0.829562         0.394326
 C         1.996222        -1.923705         0.691476
 C         1.706810        -2.462818         2.097304
 C         2.565272        -1.742720         2.981848
 O         2.455441        -0.308402         2.785988
 C         2.281868         0.089131         1.465006
 H        -1.107984        -0.328296         0.866684
 H         0.025351         0.890630         0.106465
 H        -0.449416        -0.313852        -0.849892
 H         4.103791        -0.911289         0.320013
 H         1.845647        -2.627246        -0.145763
 H         0.677755        -2.316302         2.453119
 H         1.881875        -3.624203         2.352189
 H         2.212159        -1.824642         4.077054
 H         3.719134        -2.114428         2.875550
 H         2.171485         1.133740         1.247108
