19
Iteration:  3889
 C        -0.245744        -0.384686         0.261309
 C         1.273376        -0.567016         0.489154
 O         2.250491        -0.183647        -0.678424
 C         3.066722        -0.873231         0.389369
 C         2.001240        -1.923305         0.643204
 C         1.714993        -2.411375         2.034962
 C         2.442527        -1.685221         3.092709
 O         2.519672        -0.247084         2.820183
 C         2.332723         0.070490         1.424984
 H        -0.582983        -1.184630         1.034570
 H        -0.710398         0.630496         0.403991
 H        -0.638781        -0.619605        -0.764742
 H         4.105000        -0.922150         0.164240
 H         1.907236        -2.606493        -0.217836
 H         0.598017        -2.213744         2.234602
 H         1.916056        -3.476532         2.341946
 H         1.929011        -1.723548         4.104280
 H         3.494570        -2.118362         3.222690
 H         2.575127         1.211830         1.361775
