19
Iteration:  4337
 C        -0.168493        -0.030727         0.178964
 C         1.216970        -0.485763         0.492295
 O         2.237697        -0.368075        -0.700867
 C         3.011397        -0.909263         0.412134
 C         1.872491        -1.925858         0.737826
 C         1.992382        -2.675885         2.098398
 C         2.626042        -1.630870         3.099948
 O         2.190668        -0.229824         2.776483
 C         2.320536         0.064694         1.441603
 H        -0.802332        -0.737924         0.830560
 H        -0.251032         1.090838         0.304753
 H        -0.474089        -0.185919        -0.911026
 H         4.001665        -1.231937         0.375486
 H         1.780318        -2.715802        -0.003635
 H         0.971741        -3.058962         2.314766
 H         2.689051        -3.636942         2.015923
 H         2.456609        -1.544593         4.180960
 H         3.656268        -1.643942         2.786311
 H         2.588250         1.143071         1.546120
