19
Iteration:   208
 C        -0.206921        -0.024505         0.255214
 C         1.253297        -0.541826         0.461573
 O         2.179572        -0.328116        -0.641921
 C         3.096981        -0.912064         0.452156
 C         1.977721        -1.887839         0.595816
 C         1.817635        -2.573128         2.028471
 C         2.553329        -1.688714         3.111907
 O         2.311526        -0.300636         2.815779
 C         2.368472         0.030043         1.430556
 H        -0.505699         0.539380         1.147205
 H        -0.239163         0.692313        -0.563511
 H        -0.994325        -0.652959        -0.058803
 H         4.170984        -1.062768         0.308263
 H         1.939093        -2.585502        -0.190221
 H         0.730213        -2.587488         2.205871
 H         2.258974        -3.680903         1.993260
 H         2.283806        -1.812625         4.158113
 H         3.644342        -1.915677         3.052404
 H         2.461225         1.085809         1.323384
