19
Iteration:  3480
 C        -0.209111        -0.224714         0.405817
 C         1.317022        -0.513285         0.406893
 O         2.243041        -0.185730        -0.717968
 C         3.133569        -0.822651         0.430572
 C         1.992357        -1.892556         0.626846
 C         1.864719        -2.590073         2.048357
 C         2.378371        -1.698026         3.119727
 O         2.246942        -0.316966         2.729892
 C         2.397065         0.077058         1.418014
 H        -0.532191        -0.257572         1.494760
 H        -0.352511         0.840433         0.109020
 H        -0.829996        -0.981297        -0.069120
 H         4.213421        -1.039365         0.176118
 H         1.959457        -2.707129        -0.100490
 H         0.761502        -2.784875         2.066022
 H         2.478266        -3.490789         2.138336
 H         1.760185        -1.876550         3.941026
 H         3.390984        -1.944188         3.337793
 H         2.757465         1.049024         1.416659
