19
Iteration:  4848
 C        -0.072705        -0.078725         0.387280
 C         1.300351        -0.573374         0.507612
 O         2.177692        -0.266795        -0.685533
 C         3.082156        -0.904813         0.346915
 C         2.013600        -1.991479         0.546552
 C         1.947802        -2.612709         2.008006
 C         2.447985        -1.595058         3.132832
 O         2.202622        -0.269037         2.831459
 C         2.269330         0.046087         1.428088
 H        -0.845738        -0.738860         0.817712
 H        -0.121552         0.938748         0.889993
 H        -0.290963         0.139962        -0.669875
 H         4.182644        -0.981673         0.131585
 H         1.871415        -2.596019        -0.323100
 H         0.921033        -2.758071         2.155609
 H         2.471078        -3.584338         1.982317
 H         1.953530        -1.857531         4.084396
 H         3.454442        -1.804242         3.243992
 H         2.386802         1.121724         1.249414
