19
Iteration:  3418
 C        -0.211338        -0.048334         0.239074
 C         1.178441        -0.578270         0.418267
 O         2.358816        -0.206410        -0.605502
 C         3.060914        -0.855608         0.434345
 C         1.928012        -1.975707         0.662091
 C         1.918947        -2.618752         2.065257
 C         2.646814        -1.724244         3.026306
 O         2.228860        -0.262215         2.798384
 C         2.181544         0.023262         1.419766
 H        -0.873267        -0.642481         0.820013
 H        -0.264328         1.019193         0.400604
 H        -0.482770        -0.244255        -0.824050
 H         4.117988        -0.896337         0.489938
 H         1.631895        -2.695906        -0.149211
 H         0.845024        -2.825900         2.501378
 H         2.460668        -3.669922         2.056144
 H         2.477944        -1.828811         4.140824
 H         3.853289        -1.790348         3.100226
 H         2.322974         1.192983         1.379228
