19
Iteration:  4992charge 0 multiplicity 1
 C        -0.177661        -0.297856         0.236896
 C         1.284231        -0.466418         0.513032
 O         2.225879        -0.171209        -0.670510
 C         3.070134        -0.845892         0.420981
 C         1.898442        -1.842428         0.621961
 C         1.817656        -2.554167         1.977897
 C         2.482335        -1.710050         3.084902
 O         2.290173        -0.332440         2.823367
 C         2.431620         0.045863         1.533696
 H        -0.528769         0.588464         0.804329
 H        -0.213058        -0.186576        -0.902090
 H        -0.764767        -1.192803         0.553402
 H         4.103489        -0.985071         0.131429
 H         1.809076        -2.485272        -0.252375
 H         0.860863        -2.677620         2.320571
 H         2.357319        -3.505331         1.731369
 H         2.203109        -2.022940         4.191773
 H         3.606966        -1.790757         3.067750
 H         2.559711         1.160570         1.423609
