19
Iteration:  4223charge 0 multiplicity 1
 C        -0.162332        -0.324670         0.337640
 C         1.262431        -0.569449         0.513130
 O         2.213069        -0.191845        -0.580373
 C         3.074460        -0.944372         0.357733
 C         1.947529        -1.936332         0.604402
 C         1.748552        -2.492731         2.014755
 C         2.520695        -1.586568         3.115808
 O         2.319750        -0.212231         2.777027
 C         2.403565         0.051088         1.375783
 H        -0.715123         0.115990         1.220019
 H         0.032992         0.440312        -0.506385
 H        -0.749136        -1.117591        -0.171945
 H         4.234195        -1.068231         0.353744
 H         1.914699        -2.706165        -0.228187
 H         0.648324        -2.711024         2.129406
 H         2.121404        -3.459920         2.293185
 H         2.050372        -1.844296         4.061985
 H         3.598915        -1.840987         2.954979
 H         2.732424         1.087964         1.103250
