19
Iteration:  4352charge 0 multiplicity 1
 C        -0.184952        -0.044646         0.165349
 C         1.256455        -0.510363         0.405631
 O         2.197517        -0.370194        -0.661877
 C         3.041952        -0.944595         0.521360
 C         1.900132        -1.957318         0.766825
 C         1.921362        -2.653038         2.133259
 C         2.639840        -1.618384         2.986729
 O         2.205621        -0.278378         2.843443
 C         2.324230         0.154663         1.387235
 H        -1.010181        -0.471294         0.674102
 H        -0.412948         0.992176         0.457500
 H        -0.378153        -0.148932        -0.881870
 H         4.181948        -0.940390         0.200969
 H         1.691713        -2.497231        -0.175392
 H         1.000524        -2.974162         2.685187
 H         2.782425        -3.454574         2.007246
 H         2.514218        -2.068120         3.999457
 H         3.740260        -1.553265         2.837706
 H         2.577046         1.159808         1.082955
