19
Iteration:  4295charge 0 multiplicity 1
 C        -0.177964        -0.179039         0.323130
 C         1.317973        -0.575195         0.427344
 O         2.211202        -0.258010        -0.668088
 C         3.036368        -0.920096         0.390874
 C         2.043794        -2.002749         0.614025
 C         1.798090        -2.547678         2.080012
 C         2.467437        -1.593633         3.114136
 O         2.295576        -0.190650         2.806543
 C         2.346850         0.056561         1.444910
 H        -0.570831        -0.357446         1.329165
 H        -0.137632         0.880845         0.018901
 H        -0.715110        -0.812380        -0.391921
 H         4.050417        -0.852018         0.008120
 H         1.771943        -2.592378        -0.258650
 H         0.775925        -2.927860         2.200572
 H         2.298793        -3.623059         2.034718
 H         2.173580        -1.855441         4.179408
 H         3.530576        -1.774732         3.002584
 H         2.656171         1.027220         1.115117
