19
Iteration:  3901
 C        -0.256293        -0.372354         0.244521
 C         1.208380        -0.592856         0.336335
 O         2.267081        -0.124657        -0.632493
 C         3.061454        -0.814746         0.342128
 C         1.973784        -1.934591         0.569396
 C         1.703894        -2.507242         2.160288
 C         2.495453        -1.623941         3.180175
 O         2.498764        -0.248116         2.806204
 C         2.404035         0.016143         1.462319
 H        -0.977240        -0.990489         0.947584
 H        -0.424337         0.680950         0.551516
 H        -0.500961        -0.719412        -0.798687
 H         4.112020        -0.981935         0.209674
 H         1.763354        -2.747212        -0.153534
 H         0.593993        -2.364652         2.199111
 H         1.868412        -3.582898         2.178581
 H         2.067456        -1.711798         4.258041
 H         3.599358        -2.022160         3.204315
 H         2.501316         1.155167         1.264675
