19
Iteration:  2098
 C        -0.161295        -0.107007         0.268945
 C         1.262897        -0.512917         0.445612
 O         2.270579        -0.270039        -0.614796
 C         3.036245        -0.870982         0.436115
 C         1.856763        -1.899160         0.617393
 C         1.872947        -2.595278         1.959229
 C         2.525642        -1.687293         3.065793
 O         2.304413        -0.302154         2.819162
 C         2.327974         0.059818         1.486233
 H        -0.642890        -0.196698         1.307658
 H        -0.254479         0.916317        -0.252807
 H        -0.634522        -0.816757        -0.458047
 H         4.151581        -0.994544         0.404070
 H         1.783814        -2.564404        -0.270433
 H         0.843104        -3.062133         2.357597
 H         2.347105        -3.560968         2.007143
 H         2.256066        -1.763445         4.119434
 H         3.647364        -1.783921         3.003739
 H         2.581063         1.124581         1.345078
