19
Iteration:  4962
 C        -0.216296        -0.286280         0.160955
 C         1.244630        -0.563267         0.473088
 O         2.231193        -0.162490        -0.627946
 C         3.079014        -0.737956         0.505091
 C         1.995380        -1.955619         0.616005
 C         1.677801        -2.514911         2.020240
 C         2.527083        -1.744248         3.008600
 O         2.483953        -0.318939         2.861090
 C         2.306415         0.040244         1.511055
 H        -0.710984         0.365469         0.920100
 H        -0.216667         0.174702        -0.824962
 H        -0.830366        -1.204160         0.073862
 H         4.152343        -0.717253         0.285648
 H         2.026604        -2.619569        -0.308861
 H         0.615650        -2.180665         2.350982
 H         1.939800        -3.591470         1.991951
 H         2.326464        -1.783754         4.185264
 H         3.557732        -1.949321         2.848589
 H         2.269671         1.141380         1.396813
