19
Iteration:   622charge 0 multiplicity 1
 C        -0.188228        -0.120010         0.249508
 C         1.287942        -0.511312         0.353066
 O         2.173990        -0.247150        -0.683087
 C         3.078729        -0.873964         0.402523
 C         1.891597        -1.904240         0.626586
 C         1.802671        -2.577502         2.083377
 C         2.530259        -1.659821         3.075678
 O         2.411794        -0.276371         2.862902
 C         2.377526        -0.040946         1.501726
 H        -0.707465        -0.349100         1.182050
 H        -0.409949         0.827302        -0.213384
 H        -0.580320        -0.727011        -0.545546
 H         4.188935        -0.846101         0.444212
 H         1.724864        -2.623448        -0.186328
 H         0.706703        -2.573125         2.458312
 H         2.001933        -3.646922         2.258420
 H         2.234095        -1.800078         4.100500
 H         3.543906        -1.882107         2.989207
 H         2.497275         1.039433         1.309083
