19
Iteration:  2905
 C        -0.171838        -0.097952         0.347604
 C         1.323494        -0.484284         0.410135
 O         2.221016        -0.212478        -0.710694
 C         3.106545        -0.854074         0.343379
 C         2.076976        -1.915892         0.616902
 C         1.895301        -2.606302         2.042086
 C         2.475732        -1.680055         3.045332
 O         2.092541        -0.364758         2.909121
 C         2.332685         0.055358         1.450858
 H        -0.480903        -0.330608         1.343473
 H        -0.233611         0.990371         0.121264
 H        -0.744676        -0.700216        -0.324576
 H         4.198121        -0.911995         0.103035
 H         1.965981        -2.626334        -0.177678
 H         0.844209        -2.799658         2.349755
 H         2.431072        -3.704145         2.097219
 H         2.198230        -2.128443         4.043257
 H         3.680715        -1.841122         3.023364
 H         2.582896         1.077280         1.352974
