19
Iteration:  1403charge 0 multiplicity 1
 C        -0.159530        -0.056349         0.275652
 C         1.243441        -0.606350         0.451464
 O         2.167397        -0.335860        -0.714703
 C         3.134474        -0.847262         0.466307
 C         2.012659        -1.998719         0.649959
 C         1.831563        -2.502623         1.993574
 C         2.527951        -1.672767         3.049063
 O         2.316486        -0.265411         2.847252
 C         2.264793         0.032996         1.427389
 H        -0.733501        -0.562502         1.106467
 H        -0.187799         0.996873         0.632318
 H        -0.338601        -0.226477        -0.761764
 H         4.235224        -0.830830         0.359725
 H         1.798935        -2.580114        -0.222913
 H         0.789947        -2.441769         2.423148
 H         2.303702        -3.552784         2.251438
 H         2.087963        -1.786315         4.096980
 H         3.540083        -1.946998         3.091299
 H         2.429554         1.146343         1.320525
