19
Iteration:  3741
 C        -0.200194        -0.253623         0.211333
 C         1.219831        -0.525109         0.464573
 O         2.272711        -0.168757        -0.599766
 C         3.068069        -0.880696         0.448834
 C         1.922565        -1.989505         0.608277
 C         1.797742        -2.546821         2.039644
 C         2.529261        -1.670813         2.983039
 O         2.336315        -0.204744         2.878797
 C         2.363132         0.020666         1.478305
 H        -0.808013        -0.095169         1.136985
 H        -0.254770         0.746170        -0.330140
 H        -0.740376        -1.065439        -0.307344
 H         4.114370        -1.199058         0.044351
 H         1.760167        -2.755054        -0.174443
 H         0.626204        -2.524161         2.312916
 H         2.405585        -3.572682         1.983399
 H         2.440841        -1.943095         4.080903
 H         3.605321        -1.708275         2.837307
 H         2.636087         1.038272         1.334298
