19
Iteration:  4845
 C        -0.052940        -0.097098         0.381183
 C         1.288943        -0.579539         0.493314
 O         2.177166        -0.269902        -0.678118
 C         3.057243        -0.873405         0.373858
 C         2.001448        -1.984852         0.561136
 C         1.942355        -2.609980         2.016804
 C         2.458734        -1.610873         3.130639
 O         2.197495        -0.262095         2.826377
 C         2.309424         0.058452         1.429263
 H        -0.833665        -0.782908         0.870277
 H        -0.127247         0.877177         0.908407
 H        -0.220423         0.131590        -0.698310
 H         4.160563        -0.955911         0.070268
 H         1.774709        -2.610948        -0.362412
 H         0.823789        -2.867655         1.988246
 H         2.441775        -3.590303         2.002896
 H         1.895959        -1.737053         4.031311
 H         3.575719        -1.920912         3.188020
 H         2.382370         1.123533         1.181798
