19
Iteration:   388
 C        -0.185692        -0.018221         0.249433
 C         1.204106        -0.596961         0.428086
 O         2.233040        -0.338024        -0.705701
 C         3.068839        -0.814550         0.371661
 C         2.010497        -1.963736         0.673003
 C         1.758303        -2.522443         2.069817
 C         2.584669        -1.709689         3.094293
 O         2.395746        -0.294061         2.810174
 C         2.272049         0.004049         1.498514
 H        -0.814621        -0.161345         1.107284
 H        -0.108004         1.058531         0.025596
 H        -0.835904        -0.415140        -0.597723
 H         4.198374        -0.798409         0.333417
 H         2.042247        -2.766264        -0.145036
 H         0.679042        -2.333437         2.289404
 H         1.854537        -3.686817         2.212491
 H         2.317098        -1.845639         4.173343
 H         3.734403        -1.841855         3.025230
 H         2.257236         1.143103         1.468080
