19
Iteration:   857
 C        -0.088251        -0.170133         0.384503
 C         1.293732        -0.400816         0.496127
 O         2.261251        -0.328858        -0.630022
 C         3.018289        -0.996445         0.383647
 C         1.857198        -1.879400         0.635395
 C         1.946126        -2.569434         1.927419
 C         2.503804        -1.621225         3.034268
 O         2.179961        -0.236357         2.793951
 C         2.382321         0.035709         1.456083
 H        -0.497644        -0.172993         1.369355
 H        -0.224074         0.752537        -0.160490
 H        -0.706479        -0.880598        -0.155004
 H         4.027084        -1.343162         0.394350
 H         1.561445        -2.369790        -0.301467
 H         0.925285        -2.997333         2.289339
 H         2.522802        -3.443328         1.808907
 H         2.070023        -1.768271         4.051159
 H         3.552518        -1.800124         3.076082
 H         2.682322         1.078323         1.378818
