19
Iteration:  2112charge 0 multiplicity 1
 C        -0.081287        -0.140406         0.237272
 C         1.269838        -0.560714         0.490330
 O         2.178937        -0.214798        -0.684028
 C         3.050967        -0.795981         0.480291
 C         1.997896        -1.962779         0.699188
 C         1.780133        -2.597965         2.050949
 C         2.525513        -1.732902         2.985797
 O         2.347559        -0.308180         2.826393
 C         2.302569         0.082426         1.441138
 H        -0.683848        -0.019156         1.136666
 H        -0.003916         0.897130        -0.123651
 H        -0.716357        -0.715290        -0.428748
 H         4.034696        -0.848676         0.184343
 H         1.740359        -2.663793        -0.170156
 H         0.626711        -2.500779         2.236787
 H         2.372467        -3.616706         2.039854
 H         1.966026        -2.020334         3.944557
 H         3.616183        -2.022775         2.992901
 H         2.412652         1.165184         1.476187
