19
Iteration:  2695charge 0 multiplicity 1
 C        -0.165548        -0.184043         0.269428
 C         1.310828        -0.465444         0.471976
 O         2.285005        -0.152985        -0.608012
 C         3.115232        -0.904849         0.363379
 C         1.862479        -1.901002         0.655024
 C         1.854465        -2.592338         1.982286
 C         2.491794        -1.701506         3.083643
 O         2.268689        -0.317608         2.837411
 C         2.301502         0.020727         1.436255
 H        -0.722253        -0.364057         1.252711
 H        -0.357492         0.810092        -0.133213
 H        -0.465129        -0.941076        -0.457390
 H         4.241952        -1.001987         0.230975
 H         1.651211        -2.508581        -0.238829
 H         0.859275        -2.835149         2.247154
 H         2.454830        -3.586295         1.866832
 H         2.081324        -1.901045         4.084634
 H         3.560899        -1.688128         3.170700
 H         2.520887         1.079439         1.349040
