19
Iteration:  3191
 C        -0.249140        -0.295292         0.183699
 C         1.288060        -0.544115         0.375955
 O         2.272554        -0.121568        -0.613900
 C         3.089150        -0.844043         0.523106
 C         1.920578        -1.885041         0.583179
 C         1.710911        -2.477810         2.057363
 C         2.631542        -1.744546         2.982718
 O         2.396818        -0.333710         2.853559
 C         2.269956         0.054235         1.510252
 H        -0.757013        -0.633275         1.070087
 H        -0.667424         0.717498         0.044590
 H        -0.656625        -0.771853        -0.762275
 H         4.142182        -0.941174         0.610053
 H         1.920618        -2.621982        -0.205135
 H         0.723413        -2.664820         2.520086
 H         2.102266        -3.526187         2.008083
 H         2.377885        -1.926016         4.091904
 H         3.604315        -1.884367         2.840148
 H         2.506808         1.169469         1.536967
