19
Iteration:  4994
 C        -0.173195        -0.291283         0.253587
 C         1.285835        -0.470422         0.514129
 O         2.230010        -0.159807        -0.674145
 C         3.072723        -0.854170         0.430447
 C         1.872696        -1.841787         0.624746
 C         1.840487        -2.549372         1.966960
 C         2.485036        -1.682432         3.091771
 O         2.281019        -0.343570         2.802886
 C         2.433083         0.029199         1.525770
 H        -0.555982         0.644049         0.767179
 H        -0.167345        -0.200841        -0.844187
 H        -0.750806        -1.190886         0.570927
 H         4.122621        -0.952417         0.173041
 H         1.850392        -2.557883        -0.242796
 H         0.840917        -2.742876         2.334520
 H         2.338067        -3.531824         1.743207
 H         2.172326        -2.085383         4.201211
 H         3.562704        -1.749917         3.081749
 H         2.542731         1.139039         1.452687
