19
Iteration:  1795charge 0 multiplicity 1
 C        -0.187682        -0.289264         0.298406
 C         1.267558        -0.478908         0.403622
 O         2.276745        -0.191794        -0.708412
 C         3.071900        -0.849499         0.399912
 C         1.963099        -1.956086         0.634533
 C         1.683922        -2.472606         2.059715
 C         2.518176        -1.716161         3.064878
 O         2.362831        -0.307220         2.880609
 C         2.396297         0.074616         1.451468
 H        -0.603161        -0.715095         1.231177
 H        -0.601837         0.716569         0.218424
 H        -0.604437        -0.767886        -0.539614
 H         4.118758        -0.866146         0.253377
 H         1.767879        -2.537193        -0.288394
 H         0.628319        -2.660667         2.187865
 H         2.089239        -3.445487         2.159041
 H         2.203819        -1.858797         4.129514
 H         3.534170        -1.961347         2.923677
 H         2.614454         1.127239         1.403208
