19
Iteration:  1704charge 0 multiplicity 1
 C        -0.158967         0.032399         0.286598
 C         1.252343        -0.613084         0.425005
 O         2.187391        -0.289188        -0.632289
 C         3.063535        -0.874498         0.495409
 C         1.982903        -1.935126         0.615476
 C         1.915690        -2.627943         2.034135
 C         2.587111        -1.682094         3.068251
 O         2.209174        -0.250244         2.801864
 C         2.285502         0.005297         1.426743
 H        -0.447383        -0.114688         1.299203
 H        -0.071841         1.022058        -0.073099
 H        -0.719005        -0.364743        -0.548886
 H         4.193292        -1.039005         0.239492
 H         2.009423        -2.619023        -0.272428
 H         0.828148        -2.938259         2.249510
 H         2.397465        -3.687097         2.010428
 H         2.124089        -1.833218         4.002057
 H         3.730689        -1.786185         3.112476
 H         2.399593         1.118012         1.235444
