19
Iteration:   946charge 0 multiplicity 1
 C        -0.155473        -0.291256         0.240441
 C         1.304282        -0.442925         0.465826
 O         2.313703        -0.142869        -0.643639
 C         3.025396        -0.916699         0.372836
 C         1.733451        -1.881644         0.695656
 C         1.759485        -2.556869         2.114129
 C         2.577456        -1.704961         2.989543
 O         2.368240        -0.278291         2.812539
 C         2.403824         0.073966         1.456628
 H        -0.680994        -0.853396         0.953327
 H        -0.458743         0.725149         0.011408
 H        -0.458205        -0.782097        -0.678346
 H         4.044080        -1.190746         0.305148
 H         1.529881        -2.654694        -0.072373
 H         0.712598        -2.858683         2.523748
 H         2.207968        -3.511695         2.116478
 H         2.231986        -2.011616         4.008871
 H         3.640241        -1.850440         3.004405
 H         2.478618         1.170655         1.289558
