19
Iteration:  3988charge 0 multiplicity 1
 C        -0.183466         0.002354         0.311698
 C         1.248131        -0.627406         0.467135
 O         2.270216        -0.269666        -0.636328
 C         3.054238        -0.939966         0.389423
 C         1.974759        -2.018961         0.549039
 C         1.993033        -2.551097         2.080511
 C         2.671368        -1.557313         3.066305
 O         2.067713        -0.279188         2.827917
 C         2.300344        -0.019731         1.378939
 H        -0.615560         0.238825         1.354724
 H        -0.062132         0.926619        -0.326357
 H        -0.888839        -0.676189        -0.238338
 H         4.096290        -1.142929         0.411142
 H         1.617666        -2.832475        -0.073897
 H         0.969428        -2.669710         2.568970
 H         2.264212        -3.645366         2.164852
 H         2.358546        -1.787246         4.110110
 H         3.672044        -1.414251         3.033925
 H         2.411023         1.113533         1.193298
