19
Iteration:  2769charge 0 multiplicity 1
 C        -0.192826        -0.203842         0.330530
 C         1.298257        -0.467821         0.477513
 O         2.277481        -0.159244        -0.667713
 C         3.137765        -0.906483         0.433075
 C         1.902174        -1.916854         0.606425
 C         1.904339        -2.571246         1.967358
 C         2.479617        -1.743972         3.089037
 O         2.169078        -0.266332         2.807920
 C         2.410890         0.015033         1.447905
 H        -0.688493        -0.841428         1.095059
 H        -0.597204         0.798474         0.495392
 H        -0.484592        -0.451554        -0.752551
 H         4.156485        -1.111942         0.227184
 H         1.446678        -2.464308        -0.260723
 H         0.831659        -2.766452         2.363054
 H         2.388195        -3.616461         1.996460
 H         2.230020        -1.886853         4.124073
 H         3.661549        -1.642135         3.137737
 H         2.562443         1.126449         1.291985
