19
Iteration:  4743
 C        -0.236788        -0.178969         0.120817
 C         1.280325        -0.520094         0.440631
 O         2.190030        -0.265538        -0.670842
 C         3.086183        -0.821603         0.458408
 C         1.909027        -1.889649         0.691270
 C         1.837512        -2.507093         2.057334
 C         2.598193        -1.716915         3.072750
 O         2.370089        -0.342933         2.828702
 C         2.299754         0.087010         1.528685
 H        -0.768458        -0.129763         1.051619
 H        -0.271242         0.816580        -0.331765
 H        -0.664113        -0.970997        -0.498043
 H         4.084834        -1.064024         0.337015
 H         1.681141        -2.449933        -0.232277
 H         0.740640        -2.890596         2.295869
 H         2.238229        -3.482229         1.872674
 H         2.427528        -2.108297         4.106286
 H         3.760158        -1.795856         2.981552
 H         2.453619         1.168388         1.639416
