19
Iteration:  1607
 C        -0.161875        -0.191433         0.260988
 C         1.288016        -0.614711         0.451329
 O         2.147154        -0.230614        -0.621424
 C         3.065203        -0.852407         0.474181
 C         2.023857        -1.968588         0.577663
 C         1.748129        -2.478232         1.992724
 C         2.485044        -1.648046         3.017246
 O         2.438040        -0.274702         2.835689
 C         2.315934         0.034491         1.486460
 H        -0.709336        -0.676519         1.156370
 H        -0.256841         0.941205         0.180738
 H        -0.575220        -0.571295        -0.750355
 H         4.222867        -0.964538         0.345921
 H         2.038852        -2.782367        -0.276177
 H         0.714428        -2.391858         2.365123
 H         1.939617        -3.508347         2.279264
 H         1.986450        -1.873892         3.957977
 H         3.620727        -1.805797         3.123714
 H         2.420715         1.134236         1.246930
