19
Iteration:  4387charge 0 multiplicity 1
 C        -0.199874        -0.183355         0.214300
 C         1.246976        -0.618511         0.426862
 O         2.247745        -0.187195        -0.685916
 C         3.065749        -0.931480         0.353446
 C         1.932431        -1.990393         0.662631
 C         1.757774        -2.508788         2.145200
 C         2.658910        -1.651302         3.076625
 O         2.299540        -0.233548         2.881105
 C         2.290315         0.062427         1.406701
 H        -0.909404        -0.745502         0.775271
 H        -0.179132         0.878514         0.252156
 H        -0.429349        -0.415622        -0.812637
 H         4.205591        -1.062731         0.165540
 H         1.789957        -2.787446        -0.088957
 H         0.737653        -2.496617         2.615765
 H         2.114108        -3.517993         2.370540
 H         2.515905        -1.873700         4.114829
 H         3.748778        -1.727684         2.800024
 H         2.553207         1.128279         1.439787
