19
Iteration:    23
 C        -0.074397        -0.193687         0.273711
 C         1.377358        -0.416649         0.474071
 O         2.254687        -0.231567        -0.703343
 C         3.005870        -1.142628         0.381716
 C         1.698936        -1.910174         0.672838
 C         1.786823        -2.571521         2.049626
 C         2.581287        -1.613488         3.032668
 O         2.248384        -0.184396         2.895727
 C         2.434565         0.072826         1.470974
 H        -0.660963        -0.889611         0.895000
 H        -0.415033         0.827276         0.485577
 H        -0.268049        -0.408977        -0.754739
 H         4.003669        -1.353749         0.038079
 H         1.426263        -2.510147        -0.171078
 H         0.835644        -2.935500         2.389943
 H         2.414733        -3.449465         1.882720
 H         2.452849        -1.919335         4.049211
 H         3.612624        -1.674853         2.793716
 H         2.754350         1.068881         1.236215
