19
Iteration:  2492charge 0 multiplicity 1
 C        -0.188605        -0.315472         0.272513
 C         1.257962        -0.421814         0.474442
 O         2.398257        -0.171541        -0.630937
 C         3.026590        -0.838907         0.392410
 C         1.851115        -1.862404         0.588666
 C         1.790531        -2.527811         1.997855
 C         2.526434        -1.756631         3.012767
 O         2.324697        -0.320325         2.856725
 C         2.343611         0.052863         1.505024
 H        -0.647901        -0.295797         1.245335
 H        -0.509651         0.620061        -0.154761
 H        -0.593187        -1.102476        -0.377922
 H         4.057609        -1.122059         0.301320
 H         1.530937        -2.642776        -0.103777
 H         0.655688        -2.625546         2.301806
 H         2.222710        -3.556288         1.731417
 H         2.069866        -1.832255         4.022660
 H         3.684211        -1.823158         3.192345
 H         2.612161         1.086728         1.489712
