19
Iteration:  3703
 C        -0.220945        -0.371776         0.326702
 C         1.337702        -0.514543         0.414849
 O         2.259321        -0.246489        -0.735174
 C         3.092089        -0.754641         0.340021
 C         1.983954        -1.831265         0.647015
 C         1.658170        -2.484720         2.055673
 C         2.460844        -1.750407         3.100412
 O         2.393119        -0.287338         2.837035
 C         2.424917         0.098054         1.488180
 H        -0.472507        -0.942911         1.222489
 H        -0.548023         0.642712         0.288055
 H        -0.582348        -0.741053        -0.634712
 H         4.110811        -0.886491         0.295303
 H         1.868610        -2.572465        -0.159508
 H         0.591014        -2.480067         2.244637
 H         1.796036        -3.519521         2.218676
 H         2.116521        -1.842299         4.126894
 H         3.444756        -2.252812         3.040576
 H         2.338575         1.241968         1.433620
