19
Iteration:  2969
 C        -0.238694        -0.273547         0.203746
 C         1.237349        -0.456742         0.498331
 O         2.284625        -0.185416        -0.629902
 C         3.043441        -0.873817         0.418092
 C         1.951103        -1.891540         0.590485
 C         1.823396        -2.585920         1.980343
 C         2.526924        -1.694466         3.051592
 O         2.312152        -0.271984         2.931366
 C         2.397571         0.036576         1.458410
 H        -0.847886        -0.846527         0.916527
 H        -0.495232         0.779088         0.290002
 H        -0.535466        -0.736265        -0.678579
 H         4.129971        -1.012968         0.183939
 H         1.707053        -2.307567        -0.417652
 H         0.796886        -2.737003         2.213976
 H         2.392948        -3.505302         1.938098
 H         2.174235        -1.925560         4.032136
 H         3.524005        -1.771892         2.987295
 H         2.648536         1.048889         1.489713
