19
Iteration:  3000
 C        -0.165864        -0.284647         0.121351
 C         1.274063        -0.527238         0.454061
 O         2.200719        -0.096961        -0.593067
 C         3.047630        -0.787696         0.412965
 C         1.980701        -1.886946         0.662147
 C         1.711807        -2.564229         2.078282
 C         2.603254        -1.760638         3.098124
 O         2.354289        -0.346198         2.828628
 C         2.329114         0.033008         1.447992
 H        -0.702574        -0.699833         1.056554
 H        -0.296403         0.810213        -0.014039
 H        -0.437706        -0.789104        -0.823679
 H         4.124177        -0.817931         0.123396
 H         1.775591        -2.409976        -0.329018
 H         0.645218        -2.507029         2.365529
 H         1.891567        -3.573223         2.153826
 H         2.412076        -1.882206         4.148092
 H         3.828388        -1.994945         2.959791
 H         2.445702         1.086767         1.480232
