19
Iteration:  3093charge 0 multiplicity 1
 C        -0.072572        -0.101095         0.415076
 C         1.312475        -0.520670         0.442050
 O         2.231514        -0.287694        -0.662732
 C         3.041156        -0.846486         0.457518
 C         1.973601        -1.922270         0.585174
 C         1.967618        -2.617614         1.959437
 C         2.480367        -1.685488         2.986253
 O         2.108412        -0.274060         2.883031
 C         2.302653         0.044112         1.395131
 H        -0.532123        -0.251750         1.369565
 H        -0.048674         0.964338         0.211889
 H        -0.716097        -0.513683        -0.403327
 H         4.063980        -0.939490         0.170325
 H         1.866657        -2.528001        -0.293731
 H         1.069241        -3.174292         1.975767
 H         2.695310        -3.538719         1.984219
 H         1.945166        -1.880121         4.013211
 H         3.584713        -1.742106         3.415284
 H         2.495662         1.173375         1.328264
