19
Iteration:  3188charge 0 multiplicity 1
 C        -0.240126        -0.314046         0.189700
 C         1.263226        -0.524842         0.367658
 O         2.276121        -0.128296        -0.574442
 C         3.097490        -0.842929         0.521418
 C         1.929705        -1.862870         0.604359
 C         1.710167        -2.494869         2.029210
 C         2.604762        -1.715159         2.971070
 O         2.393674        -0.338124         2.838733
 C         2.288396         0.059390         1.501226
 H        -0.839932        -0.732844         1.087685
 H        -0.626829         0.735783         0.001107
 H        -0.695416        -0.811926        -0.711782
 H         4.202080        -1.017435         0.581800
 H         1.892762        -2.627378        -0.240975
 H         0.726841        -2.674822         2.621951
 H         2.009992        -3.477261         1.995872
 H         2.394476        -1.898919         4.083208
 H         3.801476        -2.059825         2.858363
 H         2.512874         1.166796         1.463206
