19
Iteration:  2624charge 0 multiplicity 1
 C        -0.253302        -0.093021         0.212425
 C         1.216157        -0.594698         0.353347
 O         2.278829        -0.167490        -0.593580
 C         3.098673        -0.822711         0.512073
 C         2.029287        -1.974864         0.605893
 C         1.772283        -2.590790         2.032899
 C         2.607022        -1.716429         3.032134
 O         2.374825        -0.291858         2.878546
 C         2.216583        -0.011329         1.477911
 H        -0.747160        -0.186355         1.148084
 H        -0.090093         0.928330        -0.102253
 H        -0.856119        -0.714865        -0.475196
 H         4.153299        -0.786084         0.301777
 H         1.995644        -2.669538        -0.261100
 H         0.619583        -2.465218         2.074506
 H         2.051327        -3.649892         1.978042
 H         2.187122        -1.793449         4.061179
 H         3.662374        -1.950653         2.950472
 H         2.264331         1.070752         1.235779
