19
Iteration:  2230
 C        -0.182946         0.003792         0.318436
 C         1.200137        -0.689986         0.386775
 O         2.262574        -0.180382        -0.668046
 C         3.104311        -0.834420         0.431239
 C         2.005533        -1.985475         0.679795
 C         1.842981        -2.633393         2.029632
 C         2.548185        -1.718993         3.087218
 O         2.244977        -0.258866         2.798201
 C         2.300086         0.011338         1.462469
 H        -0.869166        -0.284906         1.204064
 H         0.171786         1.087307         0.242504
 H        -0.640082        -0.173072        -0.707991
 H         4.159659        -0.931203         0.185604
 H         1.954330        -2.722489        -0.150803
 H         0.746412        -2.703157         2.219719
 H         2.421339        -3.467662         2.181367
 H         2.108970        -2.026447         4.021889
 H         3.603963        -1.845780         2.931001
 H         2.334280         1.047281         1.228901
