19
Iteration:  1954
 C        -0.147073        -0.267949         0.250089
 C         1.252785        -0.484394         0.494387
 O         2.254256        -0.228027        -0.670113
 C         3.000487        -0.873815         0.427640
 C         1.878683        -1.902268         0.625281
 C         1.757576        -2.523405         2.027848
 C         2.551681        -1.694637         3.031055
 O         2.359574        -0.306976         2.829709
 C         2.400202         0.127061         1.498030
 H        -0.662588        -0.540189         1.213129
 H        -0.293703         0.774505        -0.081977
 H        -0.461826        -0.915135        -0.632532
 H         4.100885        -1.124456         0.361803
 H         1.815194        -2.544286        -0.216861
 H         0.681203        -2.650712         2.228216
 H         2.057176        -3.512842         1.980367
 H         2.141513        -1.863474         3.974292
 H         3.607806        -1.964636         2.960360
 H         2.795787         1.127420         1.593478
