19
Iteration:  2126charge 0 multiplicity 1
 C        -0.177672        -0.110602         0.232262
 C         1.286134        -0.601978         0.472532
 O         2.149120        -0.228139        -0.617463
 C         3.119210        -0.769888         0.355440
 C         2.064335        -1.926426         0.632807
 C         1.715058        -2.569601         2.044528
 C         2.507970        -1.762053         3.112640
 O         2.359156        -0.312006         2.823587
 C         2.308111         0.064265         1.464009
 H        -0.720839        -0.067226         1.134968
 H        -0.001692         0.867959        -0.114114
 H        -0.536924        -0.834386        -0.488168
 H         4.211786        -0.864317         0.137155
 H         2.107459        -2.559853        -0.240977
 H         0.692762        -2.464808         2.161849
 H         1.822271        -3.759174         2.061823
 H         2.433873        -1.879568         4.220576
 H         3.581287        -2.055514         2.989742
 H         2.332091         1.162422         1.256839
