19
Iteration:  1132charge 0 multiplicity 1
 C        -0.215041        -0.202537         0.206601
 C         1.299633        -0.524796         0.569488
 O         2.269918        -0.201020        -0.650801
 C         3.030610        -0.883662         0.374884
 C         1.966987        -1.928784         0.663838
 C         1.776734        -2.559909         2.067270
 C         2.556442        -1.675405         3.062842
 O         2.351442        -0.289815         2.794078
 C         2.320482         0.047664         1.466849
 H        -0.889907        -0.473195         1.044946
 H        -0.174568         0.884731        -0.111917
 H        -0.527802        -0.767669        -0.707416
 H         4.053076        -0.990459         0.094725
 H         1.673513        -2.560220        -0.201712
 H         0.660720        -2.529818         2.300996
 H         1.957229        -3.592429         2.226338
 H         2.436697        -1.916901         4.175983
 H         3.602195        -1.832073         2.888900
 H         2.376183         1.150318         1.243976
