19
Iteration:  3363
 C        -0.187195        -0.381499         0.179422
 C         1.206087        -0.569382         0.490848
 O         2.320595        -0.083564        -0.577643
 C         3.026992        -0.799827         0.432044
 C         1.844196        -1.900310         0.606313
 C         1.708446        -2.556465         2.008114
 C         2.563961        -1.689172         3.048915
 O         2.427158        -0.298532         2.834478
 C         2.364365         0.075966         1.487434
 H        -0.993360        -0.691212         0.809328
 H        -0.320204         0.666170        -0.092558
 H        -0.295475        -0.990311        -0.720307
 H         4.072929        -0.932612         0.287763
 H         1.763690        -2.624284        -0.246796
 H         0.657164        -2.485403         2.348874
 H         2.189729        -3.570212         2.105365
 H         2.381401        -1.788703         4.134984
 H         3.640310        -2.016803         2.801287
 H         2.555281         1.190897         1.615192
