19
Iteration:  4112charge 0 multiplicity 1
 C        -0.257952        -0.186985         0.269508
 C         1.271596        -0.512219         0.389530
 O         2.264253        -0.357009        -0.711815
 C         3.051621        -0.831657         0.472348
 C         1.944823        -1.920297         0.700329
 C         1.798202        -2.545852         2.073308
 C         2.615357        -1.681175         3.088378
 O         2.307326        -0.215552         2.818190
 C         2.379313         0.100817         1.384326
 H        -0.758424        -1.005184         0.847127
 H        -0.606775         0.742464         0.865127
 H        -0.715030        -0.403201        -0.743262
 H         4.146624        -1.113336         0.226640
 H         1.929482        -2.605282        -0.189481
 H         0.640604        -2.669736         2.208115
 H         2.177442        -3.568949         2.171859
 H         2.122600        -1.853765         4.093589
 H         3.684326        -1.774894         3.124202
 H         2.536961         1.133310         1.342355
