19
Iteration:   919charge 0 multiplicity 1
 C        -0.213265        -0.169448         0.264453
 C         1.265339        -0.557291         0.453625
 O         2.189685        -0.292568        -0.610404
 C         3.074599        -0.836039         0.432862
 C         1.974979        -1.926226         0.586703
 C         1.731531        -2.527586         1.996222
 C         2.553233        -1.692425         3.026437
 O         2.373695        -0.219793         2.846729
 C         2.403652        -0.003765         1.480676
 H        -0.848950        -0.201814         1.250637
 H        -0.231967         0.893670        -0.082611
 H        -0.729843        -0.791143        -0.515901
 H         4.225752        -0.938690         0.360516
 H         2.063187        -2.584411        -0.277726
 H         0.678809        -2.429619         2.134254
 H         1.959622        -3.658475         2.200486
 H         2.178605        -1.983957         4.012442
 H         3.767291        -1.838223         3.139291
 H         2.379039         1.072075         1.291629
