19
Iteration:  2715
 C        -0.207616        -0.091047         0.305983
 C         1.206823        -0.542569         0.361128
 O         2.290278        -0.207788        -0.644747
 C         3.030473        -0.840290         0.492585
 C         2.047246        -1.994649         0.595179
 C         1.870061        -2.632928         1.949855
 C         2.449498        -1.689371         3.093718
 O         2.306496        -0.273706         2.852120
 C         2.325163         0.029072         1.440531
 H        -0.740307        -0.362021         1.145331
 H        -0.116940         0.976926         0.282967
 H        -0.943393        -0.394063        -0.348217
 H         4.066657        -0.943331         0.248865
 H         2.002981        -2.614916        -0.311023
 H         0.906472        -2.918391         2.314211
 H         2.574347        -3.556723         2.067375
 H         1.956308        -1.845486         4.011034
 H         3.505433        -1.821585         3.221435
 H         2.515223         1.112953         1.364467
