19
Iteration:  3775charge 0 multiplicity 1
 C        -0.165782         0.008757         0.182010
 C         1.261123        -0.531779         0.467561
 O         2.193567        -0.301121        -0.686600
 C         3.003409        -0.851691         0.485422
 C         1.907573        -1.921212         0.730920
 C         2.041804        -2.584225         2.061856
 C         2.641103        -1.687818         3.106387
 O         2.165934        -0.360692         2.772401
 C         2.266118         0.049394         1.448497
 H        -0.580902         0.424091         1.088775
 H         0.001773         0.743059        -0.654333
 H        -0.760091        -0.819543        -0.272909
 H         4.065227        -0.972133         0.081663
 H         1.887225        -2.593390        -0.132784
 H         0.980585        -2.882972         2.516079
 H         2.479487        -3.677157         1.980771
 H         2.283656        -2.074496         4.056512
 H         3.727343        -1.566707         3.025607
 H         2.624008         1.016790         1.333146
