19
Iteration:  3030charge 0 multiplicity 1
 C        -0.196413        -0.239679         0.197633
 C         1.234230        -0.577655         0.441854
 O         2.272772        -0.278196        -0.553505
 C         3.041335        -0.834035         0.520693
 C         1.970393        -1.854613         0.605197
 C         1.768874        -2.519312         1.891261
 C         2.610045        -1.688671         3.000342
 O         2.366217        -0.268309         2.892980
 C         2.245639         0.062758         1.507188
 H        -0.651218        -0.293630         1.220929
 H        -0.286096         0.827468        -0.048103
 H        -0.638805        -0.733368        -0.725534
 H         4.109942        -0.885705         0.306692
 H         1.866884        -2.378246        -0.342315
 H         0.685970        -2.656097         2.221218
 H         2.181884        -3.618264         2.017463
 H         2.381297        -2.096425         3.981225
 H         3.604996        -1.984226         2.802077
 H         2.368366         1.166180         1.357308
