19
Iteration:  3139
 C        -0.130081        -0.231550         0.286215
 C         1.307769        -0.547600         0.441331
 O         2.195810        -0.173327        -0.641325
 C         3.073861        -0.836721         0.368179
 C         1.988605        -1.900040         0.617019
 C         1.852567        -2.516093         1.962083
 C         2.440757        -1.747038         3.120025
 O         2.264093        -0.299768         2.847003
 C         2.371222         0.056178         1.473273
 H        -0.607694        -0.552251         1.186530
 H        -0.357498         0.811769         0.203358
 H        -0.758121        -0.717674        -0.471842
 H         4.132139        -0.911269         0.072926
 H         1.870419        -2.595170        -0.186258
 H         0.813980        -2.729034         2.106048
 H         2.229497        -3.621536         1.939240
 H         2.092434        -1.964049         4.117569
 H         3.716673        -1.809955         3.259188
 H         2.586295         1.125473         1.449250
