19
Iteration:  1114
 C        -0.135810        -0.148184         0.253150
 C         1.258693        -0.632788         0.339482
 O         2.084305        -0.250807        -0.642722
 C         3.129051        -0.798762         0.501099
 C         2.028357        -1.961163         0.623644
 C         1.705185        -2.470110         2.040236
 C         2.524830        -1.719465         3.057130
 O         2.362697        -0.289358         2.869700
 C         2.370446         0.085326         1.427630
 H        -0.594182        -0.334457         1.235447
 H        -0.104746         0.795951        -0.200004
 H        -0.772476        -0.801346        -0.326197
 H         4.226919        -0.835509         0.261957
 H         2.215175        -2.729735        -0.164563
 H         0.624033        -2.507271         2.391509
 H         2.030290        -3.537229         2.151508
 H         2.180718        -1.951805         4.011959
 H         3.671675        -2.025693         2.947240
 H         2.730873         1.101929         1.335956
