19
Iteration:   482charge 0 multiplicity 1
 C        -0.184465        -0.047883         0.370605
 C         1.278845        -0.577968         0.504349
 O         2.202366        -0.242975        -0.741226
 C         3.107654        -0.899802         0.376439
 C         2.062104        -1.991050         0.685441
 C         1.832622        -2.599555         2.062854
 C         2.489724        -1.660292         3.077393
 O         2.235368        -0.280985         2.769745
 C         2.413948         0.049296         1.392876
 H        -0.510288         0.184703         1.444819
 H        -0.198374         0.885612        -0.233974
 H        -1.017895        -0.662081        -0.088117
 H         4.215384        -1.099929         0.153183
 H         1.777128        -2.659038        -0.119326
 H         0.747892        -2.599069         2.141083
 H         2.030367        -3.668292         2.125050
 H         1.922097        -1.774499         3.974582
 H         3.507154        -1.885740         3.273187
 H         2.455796         1.174351         1.412604
