19
Iteration:   238
 C        -0.145215        -0.229891         0.273968
 C         1.317133        -0.411355         0.470676
 O         2.319726        -0.218075        -0.583545
 C         3.067503        -0.968478         0.328135
 C         1.659867        -1.882378         0.570271
 C         1.792800        -2.625896         2.061775
 C         2.555109        -1.644189         3.065931
 O         2.269922        -0.267836         2.818448
 C         2.472519         0.037854         1.486042
 H        -0.700655         0.184265         1.087455
 H        -0.252999         0.530720        -0.528646
 H        -0.698208        -1.223409         0.059103
 H         4.169392        -1.109638         0.188455
 H         1.309959        -2.468293        -0.300081
 H         0.861138        -2.947228         2.646123
 H         2.460014        -3.426913         1.876060
 H         2.439820        -1.579400         4.194973
 H         3.664718        -1.805857         2.905235
 H         2.609735         1.102988         1.218417
