19
Iteration:  4503
 C        -0.107186        -0.087930         0.413908
 C         1.272730        -0.489703         0.426763
 O         2.180803        -0.359911        -0.732449
 C         3.116253        -0.933402         0.475092
 C         1.975175        -1.899949         0.709156
 C         1.978600        -2.594990         2.027796
 C         2.470985        -1.624648         3.041035
 O         2.152559        -0.256495         2.777203
 C         2.321378         0.080604         1.358558
 H        -0.533487        -0.061697         1.433241
 H        -0.300940         0.852789        -0.199209
 H        -0.809323        -0.858770         0.022158
 H         4.157438        -1.086107         0.401278
 H         1.911031        -2.567414        -0.181946
 H         0.961812        -2.917660         2.133243
 H         2.532287        -3.525574         1.976076
 H         2.018517        -1.916959         4.039324
 H         3.629900        -1.759787         3.089466
 H         2.691048         1.092659         1.322042
