19
Iteration:  4382
 C        -0.158682        -0.160465         0.210802
 C         1.233511        -0.636248         0.454017
 O         2.256914        -0.202217        -0.701607
 C         3.042568        -0.946136         0.382844
 C         1.942824        -1.946854         0.674097
 C         1.766098        -2.534477         2.142816
 C         2.675692        -1.600634         3.067904
 O         2.290817        -0.272187         2.885835
 C         2.294306         0.029412         1.411399
 H        -1.011186        -0.702518         0.723895
 H        -0.327461         0.973552         0.224656
 H        -0.464539        -0.277823        -0.875080
 H         4.049845        -1.149568         0.097284
 H         1.841038        -2.594600        -0.215477
 H         0.816474        -2.398260         2.661087
 H         2.222228        -3.596796         2.364723
 H         2.472868        -1.915802         4.137425
 H         3.714172        -1.547630         2.771108
 H         2.302052         1.130895         1.224193
