19
Iteration:  3558charge 0 multiplicity 1
 C        -0.209878        -0.254669         0.223949
 C         1.272821        -0.503498         0.396606
 O         2.300428        -0.194171        -0.669658
 C         3.040382        -0.830130         0.417433
 C         1.921042        -1.871487         0.690035
 C         1.818361        -2.530691         2.078298
 C         2.569197        -1.718501         3.053056
 O         2.304805        -0.343788         2.841660
 C         2.338184         0.088061         1.450187
 H        -0.702274        -0.004681         1.188224
 H        -0.267975         0.630918        -0.508793
 H        -0.839257        -1.053656        -0.316759
 H         4.171434        -0.868080         0.431424
 H         1.701040        -2.659609        -0.094212
 H         0.598118        -2.754752         2.229960
 H         2.260197        -3.620366         2.100509
 H         2.197110        -2.033575         3.994119
 H         3.652584        -1.966112         3.147073
 H         2.482398         1.181008         1.545230
