19
Iteration:  2285charge 0 multiplicity 1
 C        -0.204536        -0.174983         0.217966
 C         1.269218        -0.427114         0.512032
 O         2.334366        -0.167443        -0.623473
 C         3.049976        -0.924570         0.351123
 C         1.889198        -1.875235         0.641923
 C         1.841664        -2.581628         2.044980
 C         2.579032        -1.694425         3.116558
 O         2.225709        -0.360344         2.809313
 C         2.390077         0.062880         1.463886
 H        -0.817769        -0.201201         1.196183
 H        -0.655041         0.685585        -0.361111
 H        -0.592325        -1.036333        -0.413985
 H         4.045567        -1.139052         0.090358
 H         1.613777        -2.430300        -0.276088
 H         0.751148        -2.740094         2.180575
 H         2.241813        -3.691309         2.234060
 H         2.306024        -2.006922         4.113966
 H         3.651614        -1.898939         2.853525
 H         2.656547         1.078586         1.416067
