19
Iteration:   695charge 0 multiplicity 1
 C        -0.134774         0.011507         0.430769
 C         1.267605        -0.612085         0.452555
 O         2.246758        -0.305066        -0.729030
 C         3.116607        -0.831437         0.400925
 C         2.020832        -1.988306         0.641386
 C         1.847040        -2.578639         2.040722
 C         2.509914        -1.684439         3.085362
 O         2.264072        -0.289103         2.774739
 C         2.219938         0.024587         1.386804
 H        -0.390543         0.122582         1.482678
 H         0.073737         0.888771        -0.179031
 H        -0.914560        -0.472880        -0.215074
 H         4.151184        -0.779486         0.192311
 H         1.819348        -2.629597        -0.235402
 H         0.835675        -2.660049         2.290953
 H         2.142961        -3.607908         2.222057
 H         2.017154        -1.860077         4.089862
 H         3.564953        -1.892728         3.152118
 H         2.295439         1.086264         1.384332
