19
Iteration:  2070charge 0 multiplicity 1
 C        -0.223353        -0.102865         0.318399
 C         1.295103        -0.456758         0.460530
 O         2.352717        -0.177550        -0.662641
 C         3.015233        -1.008568         0.347739
 C         1.807887        -1.931417         0.646473
 C         1.979073        -2.591671         1.992945
 C         2.521412        -1.656622         3.027150
 O         2.146769        -0.309553         2.836323
 C         2.418109         0.031272         1.490993
 H        -0.710117        -0.366068         1.216759
 H        -0.394915         0.893887         0.023064
 H        -0.665042        -0.673254        -0.476751
 H         4.056431        -1.220901         0.323574
 H         1.558048        -2.710895        -0.101540
 H         1.093157        -2.853264         2.419954
 H         2.632405        -3.524797         2.134211
 H         2.077411        -1.789839         4.049400
 H         3.598792        -1.572731         3.008487
 H         2.930805         1.002217         1.394838
