19
Iteration:    38charge 0 multiplicity 1
 C        -0.227717        -0.115187         0.259213
 C         1.237590        -0.426743         0.523863
 O         2.324452        -0.321084        -0.595547
 C         3.021645        -1.006283         0.361607
 C         1.811941        -1.911008         0.647879
 C         1.828514        -2.516597         2.050832
 C         2.591997        -1.580520         3.054313
 O         2.239084        -0.271304         2.769523
 C         2.494641        -0.014642         1.441255
 H        -0.825540        -0.991765         0.748764
 H        -0.597754         0.878975         0.627619
 H        -0.360955        -0.099285        -0.839660
 H         4.029397        -1.424800         0.189338
 H         1.424893        -2.563211        -0.202309
 H         0.683219        -2.675348         2.466330
 H         2.320444        -3.479352         2.024791
 H         2.352862        -1.756996         4.112275
 H         3.802053        -1.740632         2.897611
 H         2.985308         0.972438         1.310372
