19
Iteration:   516
 C        -0.087634        -0.002972         0.334557
 C         1.333791        -0.570677         0.410572
 O         2.159785        -0.291658        -0.720054
 C         3.087971        -0.893159         0.436438
 C         1.949787        -2.000845         0.696883
 C         1.859512        -2.623476         2.021952
 C         2.458987        -1.626828         3.042904
 O         2.280958        -0.255281         2.814466
 C         2.315694         0.037010         1.432853
 H        -0.459008        -0.416959         1.353219
 H        -0.142295         1.136844         0.504123
 H        -0.778054        -0.431604        -0.456558
 H         4.214082        -1.131573         0.136363
 H         1.671058        -2.677243        -0.127682
 H         0.822996        -2.903719         2.283125
 H         2.566988        -3.504443         2.081792
 H         2.035687        -1.717881         4.023698
 H         3.600547        -1.835286         3.217445
 H         2.330486         1.190826         1.139324
