19
Iteration:  2838charge 0 multiplicity 1
 C        -0.115719        -0.226951         0.149074
 C         1.258512        -0.562470         0.457802
 O         2.181998        -0.157792        -0.643339
 C         3.091046        -0.766900         0.366572
 C         1.949370        -1.869351         0.639098
 C         1.827777        -2.508103         2.062161
 C         2.594032        -1.760078         3.089842
 O         2.295636        -0.368757         2.901904
 C         2.305339         0.053553         1.477865
 H        -0.845272        -0.080502         0.996695
 H        -0.247081         0.736395        -0.355050
 H        -0.749143        -0.839728        -0.482127
 H         4.225189        -0.818842         0.159845
 H         1.815412        -2.622434        -0.208160
 H         0.726643        -2.479993         2.261104
 H         2.058742        -3.699428         2.009089
 H         2.173633        -2.248191         4.035377
 H         3.765836        -2.155445         3.133929
 H         2.445272         1.109135         1.592194
