19
Iteration:  1423
 C        -0.122654        -0.193289         0.311560
 C         1.272723        -0.622859         0.385458
 O         2.206672        -0.300095        -0.709044
 C         3.050550        -0.747644         0.391882
 C         2.040520        -1.962377         0.687653
 C         1.702695        -2.541280         2.039747
 C         2.475054        -1.705441         3.115855
 O         2.376765        -0.269639         2.837728
 C         2.347605         0.098193         1.463746
 H        -0.756228        -0.330701         1.206478
 H        -0.164389         0.902961         0.536056
 H        -0.536970        -0.247793        -0.724272
 H         4.066251        -0.929975        -0.120957
 H         2.191547        -2.693427        -0.167446
 H         0.554053        -2.568134         2.145311
 H         2.117305        -3.601693         2.165273
 H         2.178729        -1.766839         4.171648
 H         3.519523        -1.935251         2.979975
 H         2.234282         1.167176         1.183523
