19
Iteration:  2523charge 0 multiplicity 1
 C        -0.133772        -0.140661         0.318507
 C         1.309944        -0.553551         0.451290
 O         2.110710        -0.201028        -0.670404
 C         3.151654        -0.776262         0.433230
 C         2.128240        -1.972020         0.660656
 C         1.757208        -2.559866         2.032544
 C         2.445719        -1.733282         3.000001
 O         2.260183        -0.327176         2.803097
 C         2.345887         0.048807         1.487324
 H        -0.657369        -0.385999         1.256259
 H        -0.007969         0.924716         0.149964
 H        -0.471888        -0.562515        -0.609664
 H         4.263821        -0.809265         0.282087
 H         1.988879        -2.669426        -0.129980
 H         0.559456        -2.739564         2.021958
 H         2.063741        -3.569855         1.974438
 H         2.150424        -2.001788         3.992371
 H         3.517573        -1.783560         3.027245
 H         2.530591         1.079003         1.494404
