19
Iteration:  4592
 C        -0.189275        -0.313673         0.127713
 C         1.224329        -0.517624         0.408447
 O         2.191112        -0.220992        -0.666966
 C         3.053301        -0.812390         0.406492
 C         1.893031        -1.868136         0.691655
 C         1.704994        -2.530491         2.119154
 C         2.598160        -1.704229         3.166640
 O         2.477099        -0.318274         2.805758
 C         2.313762         0.138248         1.480957
 H        -0.636617        -1.116331         0.763645
 H        -0.519881         0.761117         0.312027
 H        -0.321216        -0.548466        -0.970180
 H         4.112546        -1.048311         0.230154
 H         2.033627        -2.651388        -0.096277
 H         0.662827        -2.450206         2.361391
 H         1.972537        -3.601040         2.083015
 H         2.430667        -1.650315         4.256835
 H         3.665173        -2.095382         2.899474
 H         2.662980         1.121770         1.313611
