19
Iteration:  1030charge 0 multiplicity 1
 C        -0.223129        -0.088114         0.353501
 C         1.240139        -0.547368         0.460976
 O         2.287724        -0.290122        -0.685208
 C         3.078772        -0.885097         0.301036
 C         1.948393        -1.938182         0.643751
 C         1.856137        -2.606017         2.027901
 C         2.513611        -1.638374         3.128817
 O         2.216500        -0.270553         2.817032
 C         2.413217         0.039337         1.431095
 H        -0.778541        -0.212794         1.316977
 H        -0.182219         1.018622         0.325891
 H        -0.700062        -0.530079        -0.553098
 H         4.169299        -1.076628         0.130501
 H         1.792288        -2.663000        -0.148980
 H         0.826033        -2.766026         2.200707
 H         2.425669        -3.576081         2.020049
 H         2.179918        -1.823975         4.174756
 H         3.536131        -1.751351         3.110268
 H         2.670278         1.104167         1.330478
