19
Iteration:   642charge 0 multiplicity 1
 C        -0.157890        -0.176575         0.287572
 C         1.254071        -0.486429         0.571541
 O         2.282534        -0.219062        -0.627406
 C         3.015420        -0.997620         0.328467
 C         1.868591        -1.894840         0.706761
 C         1.832345        -2.556523         2.008056
 C         2.495788        -1.671442         3.061258
 O         2.267670        -0.255515         2.778788
 C         2.444762         0.102833         1.405346
 H        -0.613229        -0.249105         1.262863
 H        -0.249622         0.751845        -0.266311
 H        -0.588420        -1.003053        -0.273606
 H         4.043765        -1.296516         0.137786
 H         1.683773        -2.556067        -0.146929
 H         0.773729        -2.887132         2.292467
 H         2.330766        -3.651472         1.825209
 H         2.178744        -1.798946         4.144930
 H         3.686697        -1.845526         2.971423
 H         2.845183         1.092119         1.388006
