19
Iteration:   393
 C        -0.154816        -0.029800         0.257448
 C         1.214936        -0.620121         0.398429
 O         2.236694        -0.318580        -0.702341
 C         3.050253        -0.782795         0.369530
 C         2.020228        -1.965418         0.677907
 C         1.735810        -2.538355         2.075882
 C         2.611512        -1.751769         3.132516
 O         2.399252        -0.281798         2.837863
 C         2.230461         0.025180         1.445151
 H        -0.693427        -0.086430         1.251568
 H        -0.082194         1.021276        -0.094700
 H        -0.655946        -0.463075        -0.593107
 H         4.104526        -0.823731         0.195239
 H         1.876815        -2.634183        -0.144272
 H         0.696538        -2.332736         2.340583
 H         1.803124        -3.544221         2.289513
 H         2.346463        -1.913755         4.167314
 H         3.659545        -1.956381         3.014520
 H         2.207610         1.077539         1.305580
