19
Iteration:  3358
 C        -0.216484        -0.378545         0.198670
 C         1.241956        -0.570240         0.434763
 O         2.335909        -0.065230        -0.578262
 C         3.000903        -0.807443         0.435875
 C         1.907803        -1.906963         0.583149
 C         1.699570        -2.518937         2.045572
 C         2.554949        -1.680595         3.082707
 O         2.446944        -0.304185         2.816713
 C         2.338041         0.056391         1.508945
 H        -0.912560        -0.615566         1.079349
 H        -0.523306         0.628303        -0.170355
 H        -0.415054        -0.926531        -0.749030
 H         4.117390        -0.997055         0.375179
 H         1.700049        -2.601566        -0.231250
 H         0.650957        -2.703597         2.357512
 H         2.141121        -3.602589         1.972747
 H         2.219106        -1.882428         4.109721
 H         3.622980        -2.024209         2.710826
 H         2.494985         1.110405         1.444270
