19
Iteration:  4560charge 0 multiplicity 1
 C        -0.176301        -0.163819         0.116864
 C         1.215574        -0.645956         0.472218
 O         2.206844        -0.299123        -0.598821
 C         3.044126        -0.836450         0.464357
 C         1.827339        -1.962080         0.611699
 C         1.822331        -2.565731         2.080785
 C         2.681183        -1.628869         3.008949
 O         2.349200        -0.237513         2.855591
 C         2.307671         0.100168         1.486662
 H        -0.976081        -0.553256         0.774567
 H        -0.352322         0.899642         0.314541
 H        -0.382158        -0.460429        -0.947486
 H         4.150835        -0.870133         0.251049
 H         2.036491        -2.694113        -0.172516
 H         0.789192        -2.417802         2.327443
 H         2.054079        -3.672363         2.215888
 H         2.499505        -1.768164         4.080995
 H         3.855523        -1.727873         2.909544
 H         2.694963         1.069569         1.427859
