19
Iteration:   423charge 0 multiplicity 1
 C        -0.215299        -0.181686         0.241818
 C         1.280027        -0.513450         0.442246
 O         2.216952        -0.234740        -0.653861
 C         3.076956        -0.887905         0.427600
 C         1.927609        -1.915130         0.688493
 C         1.717574        -2.532687         2.052147
 C         2.565394        -1.659622         3.030685
 O         2.352487        -0.284529         2.788460
 C         2.426362         0.002738         1.505714
 H        -0.679740         0.111445         1.183873
 H        -0.293529         0.682110        -0.460904
 H        -0.653220        -1.113816        -0.197992
 H         4.102264        -1.062796         0.178067
 H         1.693213        -2.582334        -0.181432
 H         0.627404        -2.475454         2.333286
 H         2.064612        -3.536249         2.173051
 H         2.361851        -1.856616         4.120800
 H         3.656317        -1.863352         2.822345
 H         2.602576         1.047779         1.396370
