19
Iteration:  2505charge 0 multiplicity 1
 C        -0.195694        -0.228653         0.281862
 C         1.302933        -0.474719         0.433939
 O         2.247714        -0.188152        -0.695830
 C         3.093908        -0.856473         0.455731
 C         1.944661        -1.840851         0.636023
 C         1.774007        -2.566496         1.950944
 C         2.526882        -1.738993         3.133354
 O         2.275900        -0.349424         2.849334
 C         2.397685         0.096792         1.461911
 H        -0.699167        -0.468627         1.202772
 H        -0.446395         0.774945        -0.113082
 H        -0.581234        -1.070589        -0.376443
 H         4.120799        -0.964200         0.196531
 H         1.920752        -2.311467        -0.393918
 H         0.740376        -2.524992         2.259864
 H         2.023800        -3.725597         2.111265
 H         2.108352        -2.122401         4.138479
 H         3.647790        -2.090927         3.044118
 H         2.590513         1.211540         1.414119
