19
Iteration:  2772charge 0 multiplicity 1
 C        -0.225400        -0.216028         0.317456
 C         1.309186        -0.472259         0.477728
 O         2.303673        -0.159522        -0.659692
 C         3.104271        -0.910566         0.447059
 C         1.888916        -1.914565         0.600790
 C         1.886445        -2.550307         1.957622
 C         2.501007        -1.727762         3.094428
 O         2.190307        -0.271770         2.804090
 C         2.390854         0.016842         1.448247
 H        -0.587381        -0.824310         1.174101
 H        -0.606607         0.772606         0.507893
 H        -0.388329        -0.441813        -0.716971
 H         4.199559        -1.191972         0.217453
 H         1.497381        -2.403270        -0.320437
 H         0.908330        -2.776503         2.354489
 H         2.400690        -3.620228         1.974533
 H         2.232583        -2.015885         4.152636
 H         3.566378        -1.590420         3.136013
 H         2.543490         1.081554         1.272875
