19
Iteration:  1952charge 0 multiplicity 1
 C        -0.159408        -0.242642         0.249718
 C         1.261290        -0.481425         0.471692
 O         2.249296        -0.229744        -0.663809
 C         3.012500        -0.853370         0.438155
 C         1.886056        -1.929408         0.633695
 C         1.753530        -2.528023         2.028679
 C         2.552141        -1.705294         3.020489
 O         2.368597        -0.308338         2.826687
 C         2.379189         0.101296         1.496786
 H        -0.607846        -0.523206         1.230679
 H        -0.311521         0.803719        -0.073501
 H        -0.474828        -0.921971        -0.635385
 H         4.109230        -1.072821         0.390655
 H         1.833536        -2.566157        -0.225095
 H         0.557932        -2.617309         2.235874
 H         2.114654        -3.543217         1.969736
 H         2.165163        -1.786139         4.070388
 H         3.673333        -1.864378         2.998231
 H         2.765032         1.158411         1.546717
