19
Iteration:   528charge 0 multiplicity 1
 C        -0.157903        -0.108862         0.370377
 C         1.249944        -0.482139         0.400163
 O         2.263730        -0.250421        -0.690253
 C         3.029274        -0.981875         0.443543
 C         1.865608        -1.925408         0.640021
 C         1.912062        -2.642528         2.089541
 C         2.479791        -1.654649         3.085523
 O         2.278196        -0.220930         2.767024
 C         2.371238         0.056927         1.394511
 H        -0.782686        -0.535943         1.191625
 H        -0.172175         1.024840         0.377506
 H        -0.635160        -0.312733        -0.632287
 H         4.141287        -1.204116         0.184054
 H         1.793286        -2.627102        -0.215003
 H         0.913908        -2.962750         2.392238
 H         2.476380        -3.657518         2.051250
 H         2.095249        -1.864767         4.076697
 H         3.593129        -1.785278         3.068708
 H         2.836174         1.120705         1.373811
