19
Iteration:   885charge 0 multiplicity 1
 C        -0.167011        -0.085990         0.370851
 C         1.265688        -0.537128         0.424435
 O         2.243516        -0.238506        -0.680012
 C         3.104541        -0.824563         0.317723
 C         2.003204        -1.925475         0.667060
 C         1.792141        -2.615825         2.097815
 C         2.477594        -1.688351         3.112896
 O         2.252152        -0.286266         2.765971
 C         2.351404        -0.024317         1.407569
 H        -0.590628         0.143568         1.443171
 H        -0.255018         0.912093        -0.179212
 H        -0.822711        -0.798379        -0.186059
 H         4.238079        -1.037218         0.293558
 H         2.074575        -2.590531        -0.218416
 H         0.770692        -2.790085         2.314243
 H         2.383633        -3.643918         2.062052
 H         2.215815        -1.712685         4.166658
 H         3.662394        -1.967228         2.917072
 H         2.392781         1.088179         1.411541
