19
Iteration:  4800
 C        -0.199701        -0.327763         0.290716
 C         1.233171        -0.529710         0.425652
 O         2.341127        -0.192494        -0.655776
 C         3.005035        -0.843334         0.408555
 C         1.885229        -1.909165         0.618603
 C         1.752528        -2.450564         1.969489
 C         2.574706        -1.721333         3.111800
 O         2.368149        -0.239851         2.829001
 C         2.366779         0.039825         1.505114
 H        -0.696891        -1.204893         0.841827
 H        -0.665840         0.598841         0.632667
 H        -0.520719        -0.391695        -0.786080
 H         4.104676        -1.035890         0.384664
 H         1.764396        -2.614404        -0.287527
 H         0.698669        -2.328063         2.435505
 H         2.036799        -3.526048         1.892853
 H         2.118393        -2.104680         4.009168
 H         3.690555        -1.868993         2.979867
 H         2.649049         1.093837         1.351755
