19
Iteration:  2174charge 0 multiplicity 1
 C        -0.181719        -0.283509         0.284817
 C         1.285378        -0.409015         0.492543
 O         2.322525        -0.215242        -0.589180
 C         3.052484        -0.902306         0.445266
 C         1.831420        -1.902040         0.647173
 C         1.705135        -2.604727         1.938520
 C         2.506215        -1.653692         2.979111
 O         2.329735        -0.247348         2.778889
 C         2.428181         0.057245         1.493799
 H        -0.618061        -0.792731         1.225521
 H        -0.551007         0.807263         0.322691
 H        -0.357298        -0.969079        -0.578605
 H         4.183018        -0.936655         0.266058
 H         1.556797        -2.447064        -0.261986
 H         0.729074        -3.011587         2.254416
 H         2.317614        -3.460868         2.171619
 H         2.347932        -1.862827         4.031832
 H         3.585725        -1.847467         2.963531
 H         2.778949         1.094806         1.378276
