19
Iteration:   577charge 0 multiplicity 1
 C        -0.128091        -0.162228         0.193241
 C         1.266215        -0.538542         0.514155
 O         2.195479        -0.258076        -0.653122
 C         3.041722        -0.840472         0.472000
 C         1.910101        -1.982674         0.660546
 C         1.650112        -2.516535         2.042749
 C         2.646134        -1.668252         3.059959
 O         2.381755        -0.280035         2.836716
 C         2.372389         0.069076         1.417499
 H        -0.552845        -0.784914         0.960932
 H        -0.502289         0.826543         0.266935
 H        -0.477346        -0.385494        -0.777803
 H         4.025731        -0.964485         0.131386
 H         1.820238        -2.687183        -0.168831
 H         0.569067        -2.604056         2.345034
 H         1.920278        -3.608902         2.109451
 H         2.576077        -1.891985         4.132270
 H         3.568827        -1.893692         2.747433
 H         2.649102         1.070618         1.183182
