19
Iteration:  3118
 C        -0.240105        -0.093818         0.419710
 C         1.256621        -0.552660         0.447892
 O         2.319140        -0.181976        -0.655746
 C         3.093217        -0.824544         0.464557
 C         2.029660        -1.952372         0.596506
 C         1.933502        -2.668667         2.011729
 C         2.437015        -1.661059         3.053198
 O         2.254514        -0.315556         2.780126
 C         2.266176         0.009857         1.369057
 H        -0.836394        -0.246036         1.315694
 H        -0.280544         0.963415         0.197533
 H        -0.736334        -0.501331        -0.476026
 H         4.140653        -0.819919         0.168743
 H         2.000737        -2.552247        -0.300449
 H         0.925435        -2.990434         2.038788
 H         2.447197        -3.683669         2.203601
 H         1.949629        -1.799678         3.969971
 H         3.499976        -1.768081         3.367127
 H         2.334723         1.065271         1.355170
