19
Iteration:  4188charge 0 multiplicity 1
 C        -0.194075        -0.078487         0.206648
 C         1.254322        -0.565331         0.415243
 O         2.249418        -0.393959        -0.739357
 C         2.984628        -0.825178         0.393152
 C         1.862865        -1.895293         0.703482
 C         1.953115        -2.620791         2.112695
 C         2.579335        -1.677013         3.152970
 O         2.297607        -0.271912         2.868650
 C         2.274105         0.125841         1.363030
 H        -0.636346         0.040021         1.183138
 H        -0.071555         0.964652        -0.207572
 H        -0.778744        -0.725104        -0.464420
 H         4.106680        -1.025133         0.449045
 H         1.891766        -2.577261        -0.169865
 H         0.917378        -2.869819         2.415053
 H         2.568371        -3.412156         1.842587
 H         2.462874        -1.923142         4.258159
 H         3.714662        -1.759046         3.199283
 H         2.428995         1.159616         1.440602
