19
Iteration:  2635charge 0 multiplicity 1
 C        -0.182435        -0.184037         0.223002
 C         1.199189        -0.656599         0.411756
 O         2.351591        -0.148590        -0.617295
 C         3.004084        -0.754700         0.521987
 C         1.944818        -1.933534         0.617567
 C         1.756108        -2.569422         1.951878
 C         2.578256        -1.662241         3.052908
 O         2.410582        -0.328549         2.825748
 C         2.227307         0.021390         1.453212
 H        -0.549375         0.061036         1.185546
 H        -0.240739         0.815387        -0.209059
 H        -0.798142        -0.730080        -0.526853
 H         4.064709        -0.884929         0.530120
 H         2.071556        -2.782064        -0.081500
 H         0.732622        -2.471533         2.590726
 H         1.850762        -3.664258         2.006916
 H         2.387680        -2.206659         4.008799
 H         3.597748        -1.956365         2.918346
 H         2.300081         1.113940         1.635711
