19
Iteration:  3561charge 0 multiplicity 1
 C        -0.199913        -0.240128         0.221602
 C         1.262594        -0.538299         0.425541
 O         2.300128        -0.212653        -0.657076
 C         3.065796        -0.818050         0.431375
 C         1.895891        -1.864825         0.684276
 C         1.811032        -2.510722         2.050052
 C         2.596963        -1.716642         3.034221
 O         2.289628        -0.333614         2.859997
 C         2.321518         0.058897         1.439813
 H        -0.664070        -0.007871         1.145385
 H        -0.291030         0.591629        -0.460360
 H        -0.849710        -0.912539        -0.376097
 H         4.115210        -0.923897         0.486959
 H         1.747916        -2.608920        -0.124799
 H         0.702977        -2.805727         2.183575
 H         2.271385        -3.603984         2.086333
 H         2.223391        -1.960093         4.030783
 H         3.653309        -1.888301         3.082484
 H         2.544720         1.208181         1.442024
