19
Iteration:  2270
 C        -0.142938        -0.206619         0.225184
 C         1.326608        -0.429678         0.477143
 O         2.265209        -0.216653        -0.687121
 C         3.037154        -0.896965         0.399134
 C         1.820003        -1.829345         0.693913
 C         1.841576        -2.596236         2.020918
 C         2.560814        -1.730687         3.040228
 O         2.183039        -0.322498         2.868481
 C         2.402000         0.066008         1.465568
 H        -0.677745        -0.194866         1.184814
 H        -0.140765         0.825700        -0.128713
 H        -0.546813        -0.972575        -0.414116
 H         4.148033        -1.222783         0.222405
 H         1.576609        -2.531540        -0.078620
 H         0.873438        -2.975367         2.385287
 H         2.525137        -3.504609         1.539956
 H         2.390261        -1.857530         4.128870
 H         3.714253        -1.800126         3.099287
 H         2.749522         1.134764         1.479837
