19
Iteration:  4714
 C        -0.227737        -0.054539         0.246447
 C         1.283713        -0.535048         0.516001
 O         2.255267        -0.184743        -0.622006
 C         3.047645        -0.932877         0.407402
 C         1.891123        -2.013101         0.625726
 C         2.007372        -2.663357         2.046222
 C         2.579855        -1.653173         3.078854
 O         2.185660        -0.264690         2.812060
 C         2.325081         0.068947         1.393938
 H        -0.696583         0.277709         1.256164
 H        -0.065224         0.759082        -0.483610
 H        -0.927016        -0.827235        -0.232734
 H         4.169649        -1.231120         0.273936
 H         1.497949        -2.617667        -0.284131
 H         1.031705        -2.934281         2.328617
 H         2.604711        -3.620352         1.846890
 H         2.142534        -1.994347         4.019560
 H         3.607609        -1.548956         3.219739
 H         2.625957         1.116198         1.425922
