19
Iteration:  3028charge 0 multiplicity 1
 C        -0.216618        -0.240395         0.198393
 C         1.232879        -0.584945         0.444186
 O         2.274265        -0.281238        -0.548622
 C         3.041614        -0.829569         0.512886
 C         1.979039        -1.864791         0.608876
 C         1.762314        -2.505096         1.888755
 C         2.594692        -1.691515         2.987682
 O         2.378335        -0.270226         2.904086
 C         2.249017         0.064325         1.500992
 H        -0.637438        -0.299940         1.166811
 H        -0.275754         0.811118        -0.073798
 H        -0.594524        -0.700433        -0.737911
 H         4.093624        -0.856921         0.287984
 H         1.912740        -2.377950        -0.325622
 H         0.736373        -2.661628         2.250620
 H         2.148467        -3.650857         2.005737
 H         2.407065        -2.114655         4.023299
 H         3.589143        -1.921977         2.798217
 H         2.398884         1.208926         1.408737
