19
Iteration:  3408
 C        -0.230444        -0.115147         0.130664
 C         1.248855        -0.575082         0.449797
 O         2.304535        -0.216245        -0.698892
 C         3.022814        -0.787428         0.458933
 C         1.902160        -1.910247         0.666234
 C         1.869443        -2.616067         2.113308
 C         2.678990        -1.714060         3.039341
 O         2.265501        -0.325139         2.875185
 C         2.281120         0.035502         1.468031
 H        -0.982278        -0.583540         0.743939
 H        -0.318113         0.934643         0.401787
 H        -0.593969        -0.282027        -0.922161
 H         4.087413        -0.907288         0.425979
 H         1.708838        -2.621961        -0.174991
 H         0.833912        -2.634650         2.660271
 H         2.356769        -3.626153         1.947341
 H         2.270459        -2.026522         4.089122
 H         3.848994        -1.821649         2.897498
 H         2.328005         1.208775         1.380348
