19
Iteration:  1858
 C        -0.203861        -0.143145         0.284862
 C         1.294411        -0.471489         0.436199
 O         2.278275        -0.229548        -0.634675
 C         3.060468        -0.965938         0.458180
 C         1.874043        -1.892461         0.605158
 C         1.924978        -2.568321         1.992783
 C         2.523007        -1.661676         3.126705
 O         2.248340        -0.292232         2.795725
 C         2.347197         0.072850         1.407492
 H        -0.659406        -0.392194         1.245786
 H        -0.325658         0.928974         0.169252
 H        -0.744618        -0.673317        -0.466722
 H         4.112976        -1.253080         0.260833
 H         1.521224        -2.573415        -0.175137
 H         0.942755        -3.003377         2.460492
 H         2.598537        -3.560393         1.862981
 H         1.995350        -1.932224         3.990031
 H         3.645817        -1.952932         3.255945
 H         2.578579         1.116622         1.265530
