19
Iteration:  1188charge 0 multiplicity 1
 C        -0.162430        -0.062587         0.238547
 C         1.284542        -0.585257         0.530902
 O         2.252491        -0.289191        -0.683131
 C         3.061039        -0.844977         0.380353
 C         1.885877        -1.947911         0.745042
 C         1.862266        -2.619396         2.061111
 C         2.593698        -1.666570         3.039518
 O         2.247533        -0.288624         2.798066
 C         2.333637         0.065963         1.428342
 H        -1.035478        -0.645208         0.671424
 H        -0.282256         1.018280         0.543588
 H        -0.280471        -0.124498        -0.864443
 H         4.121875        -0.888396         0.191270
 H         1.676268        -2.672423        -0.100328
 H         0.808549        -2.751060         2.531199
 H         2.432656        -3.500492         1.947393
 H         2.102981        -1.905451         4.031620
 H         3.796698        -1.732577         3.083836
 H         2.289429         1.160054         1.225637
