19
Iteration:  4649charge 0 multiplicity 1
 C        -0.134167        -0.211773         0.412902
 C         1.272715        -0.555901         0.460756
 O         2.250413        -0.240786        -0.679581
 C         3.128532        -0.851703         0.405047
 C         1.958835        -1.998094         0.621625
 C         1.811642        -2.521859         2.008577
 C         2.435902        -1.672560         3.055587
 O         2.242942        -0.256279         2.753644
 C         2.355997         0.135732         1.402048
 H        -0.500909        -0.498476         1.473886
 H        -0.235360         0.872040         0.381682
 H        -0.801350        -0.843682        -0.232911
 H         4.332970        -0.852042         0.383925
 H         1.730982        -2.824870        -0.104680
 H         0.871023        -2.814181         2.364007
 H         2.296716        -3.577810         2.014394
 H         2.113702        -1.759724         4.094273
 H         3.588160        -2.016448         3.061493
 H         2.687800         1.175407         1.156393
