19
Iteration:  3117charge 0 multiplicity 1
 C        -0.233362        -0.085927         0.424525
 C         1.255610        -0.556959         0.444358
 O         2.320465        -0.184961        -0.656194
 C         3.098637        -0.826476         0.464240
 C         2.025409        -1.954250         0.600929
 C         1.934024        -2.672215         2.004195
 C         2.423683        -1.659405         3.047349
 O         2.254366        -0.311027         2.777300
 C         2.263293         0.010791         1.374863
 H        -0.844509        -0.261912         1.269512
 H        -0.266366         0.960106         0.202450
 H        -0.788583        -0.511943        -0.446959
 H         4.127949        -0.813614         0.168724
 H         2.007965        -2.534202        -0.287258
 H         0.946730        -3.005982         2.047092
 H         2.475707        -3.700170         2.196874
 H         1.971316        -1.828529         4.023012
 H         3.575886        -1.745366         3.386215
 H         2.325093         1.098419         1.358528
