19
Iteration:  4338charge 0 multiplicity 1
 C        -0.179435        -0.029654         0.173811
 C         1.221341        -0.482451         0.490822
 O         2.233694        -0.368609        -0.704937
 C         3.013883        -0.904045         0.428002
 C         1.870675        -1.925004         0.740528
 C         1.993220        -2.678791         2.109335
 C         2.626108        -1.627235         3.082727
 O         2.189318        -0.230063         2.788572
 C         2.328238         0.066467         1.431177
 H        -0.783726        -0.739294         0.815154
 H        -0.226877         1.091965         0.317982
 H        -0.464011        -0.182320        -0.909188
 H         4.016316        -1.261516         0.350494
 H         1.795218        -2.707136        -0.013966
 H         0.975424        -3.099159         2.312047
 H         2.688576        -3.679730         2.010292
 H         2.460872        -1.537830         4.179180
 H         3.650220        -1.683268         2.775249
 H         2.557139         1.134036         1.532486
