19
Iteration:  4973
 C        -0.233068        -0.280116         0.176661
 C         1.268667        -0.493868         0.447318
 O         2.218923        -0.194788        -0.608400
 C         3.108333        -0.796344         0.386998
 C         1.974043        -1.921802         0.679686
 C         1.735870        -2.577546         1.972538
 C         2.539669        -1.739415         3.034080
 O         2.433287        -0.276634         2.929257
 C         2.319785         0.144362         1.481381
 H        -0.815496         0.456275         0.799069
 H        -0.295888         0.044476        -0.854016
 H        -0.646881        -1.306670         0.238196
 H         4.188058        -0.747999         0.197030
 H         1.959488        -2.718183        -0.154687
 H         0.542456        -2.561992         2.041988
 H         1.779390        -3.665579         2.226498
 H         2.189784        -2.378340         4.006541
 H         3.538526        -2.049035         2.894312
 H         2.506896         1.244038         1.518846
