19
Iteration:  2824charge 0 multiplicity 1
 C        -0.170345        -0.215033         0.167579
 C         1.283217        -0.554325         0.499691
 O         2.178461        -0.172382        -0.618847
 C         3.046633        -0.742399         0.432281
 C         2.063602        -1.939364         0.679318
 C         1.765169        -2.507630         2.003508
 C         2.551490        -1.792994         3.037237
 O         2.312194        -0.378676         2.811053
 C         2.322273         0.070596         1.526091
 H        -0.700182        -0.240588         1.157247
 H        -0.052898         0.806822        -0.208801
 H        -0.414826        -0.938838        -0.687938
 H         4.102384        -0.811989         0.144512
 H         1.748371        -2.630120        -0.197955
 H         0.682957        -2.285396         2.297604
 H         1.935846        -3.637496         2.121163
 H         2.349785        -1.861467         4.136073
 H         3.710272        -1.824540         2.794012
 H         2.376628         1.200385         1.409482
