19
Iteration:  3324
 C        -0.178766        -0.252486         0.374754
 C         1.304577        -0.582569         0.456700
 O         2.236960        -0.240255        -0.701839
 C         3.056473        -0.739219         0.420210
 C         2.058525        -1.910370         0.563338
 C         1.787897        -2.517130         1.971283
 C         2.449242        -1.717032         3.061554
 O         2.279772        -0.315074         2.847598
 C         2.375341         0.090095         1.507528
 H        -0.703489        -0.382026         1.346477
 H        -0.176283         0.790351        -0.025166
 H        -0.681592        -1.010759        -0.325993
 H         4.138489        -0.889928         0.216032
 H         1.917738        -2.484210        -0.338424
 H         0.668581        -2.507628         2.086599
 H         2.057306        -3.609319         1.865233
 H         2.074784        -1.952237         4.133381
 H         3.643192        -1.899895         3.292153
 H         2.489957         1.165341         1.337283
