19
Iteration:  2448charge 0 multiplicity 1
 C        -0.151652        -0.118970         0.224733
 C         1.289846        -0.539415         0.499331
 O         2.194289        -0.235085        -0.663813
 C         3.098024        -0.816734         0.405047
 C         1.990154        -1.955172         0.670587
 C         1.806504        -2.512801         2.015891
 C         2.542568        -1.760942         3.020853
 O         2.280857        -0.350377         2.861543
 C         2.301260         0.064317         1.482014
 H        -0.597361        -0.134084         1.211947
 H        -0.162006         0.864329        -0.200465
 H        -0.572274        -0.798982        -0.481107
 H         4.142021        -0.713861         0.180631
 H         1.792584        -2.474147        -0.235833
 H         0.736937        -2.485376         2.168286
 H         2.066156        -3.602603         2.117085
 H         2.260231        -2.144950         3.997271
 H         3.674202        -1.793789         2.946708
 H         2.469287         1.112599         1.497920
