19
Iteration:  3758charge 0 multiplicity 1
 C        -0.180361        -0.112350         0.163270
 C         1.231993        -0.537456         0.404522
 O         2.253078        -0.230097        -0.640613
 C         3.036469        -0.941312         0.337195
 C         1.918426        -1.925783         0.609447
 C         1.905366        -2.569981         2.062556
 C         2.675259        -1.653048         3.119644
 O         2.237405        -0.299672         2.916573
 C         2.287713         0.026173         1.486093
 H        -0.685274         0.310390         1.063903
 H        -0.263182         0.802884        -0.399788
 H        -0.802337        -0.945386        -0.180762
 H         4.076684        -1.048026         0.381532
 H         1.606547        -2.632953        -0.182696
 H         0.939389        -2.801198         2.339852
 H         2.438380        -3.457918         2.058194
 H         2.236161        -1.718610         4.133688
 H         3.754963        -1.875432         2.896276
 H         2.286905         1.193637         1.467838
