19
Iteration:   636charge 0 multiplicity 1
 C        -0.187678        -0.190053         0.256907
 C         1.284098        -0.435647         0.513810
 O         2.250817        -0.216211        -0.651898
 C         3.057389        -0.959705         0.393510
 C         1.880458        -1.963329         0.651941
 C         1.786086        -2.574301         2.068171
 C         2.532025        -1.684617         3.065374
 O         2.298940        -0.262532         2.816720
 C         2.438373         0.093119         1.410654
 H        -0.759696        -0.152745         1.223452
 H        -0.288806         0.848178        -0.123405
 H        -0.624798        -1.013785        -0.328132
 H         4.027177        -1.233054        -0.119628
 H         1.581485        -2.590246        -0.208880
 H         0.753240        -2.829822         2.302823
 H         2.406473        -3.411042         2.022735
 H         2.184508        -1.878624         4.059023
 H         3.564754        -1.877261         3.037023
 H         2.805323         1.165069         1.360383
