19
Iteration:  2049
 C        -0.090438        -0.060612         0.350904
 C         1.344750        -0.529694         0.479842
 O         2.191243        -0.241619        -0.661749
 C         3.099225        -0.917915         0.422017
 C         1.948211        -1.903528         0.661116
 C         1.849631        -2.608731         2.013313
 C         2.548549        -1.702148         3.083103
 O         2.135196        -0.314471         2.788772
 C         2.333613         0.052287         1.402325
 H        -0.552213        -0.415547         1.227155
 H        -0.099826         0.977927         0.200267
 H        -0.519542        -0.456581        -0.563638
 H         4.112282        -1.047986         0.052967
 H         1.708233        -2.525007        -0.200264
 H         0.960692        -2.965922         2.321747
 H         2.378442        -3.577669         1.924479
 H         2.159168        -1.701452         4.131854
 H         3.637076        -1.669147         2.965021
 H         2.517084         1.109243         1.143146
