19
Iteration:  1134
 C        -0.209458        -0.200374         0.201229
 C         1.288430        -0.528856         0.579335
 O         2.296883        -0.207732        -0.628944
 C         3.010455        -0.887308         0.357472
 C         1.944009        -1.910613         0.653273
 C         1.784959        -2.554983         2.065266
 C         2.569027        -1.685536         3.084257
 O         2.347802        -0.290000         2.790163
 C         2.313253         0.063921         1.455574
 H        -0.860195        -0.561274         1.000688
 H        -0.180709         0.833119        -0.093873
 H        -0.521102        -0.761424        -0.672934
 H         4.041496        -1.036690         0.054892
 H         1.653638        -2.532508        -0.235231
 H         0.658919        -2.569196         2.352526
 H         2.004579        -3.599389         2.214741
 H         2.448485        -1.911539         4.127816
 H         3.548114        -1.801694         2.877742
 H         2.422978         1.140178         1.226746
