19
Iteration:  2650
 C        -0.189660        -0.231887         0.195634
 C         1.267111        -0.534649         0.460012
 O         2.321218        -0.181520        -0.629403
 C         3.056877        -0.791249         0.494599
 C         1.940434        -1.898427         0.614221
 C         1.714106        -2.513666         2.060496
 C         2.607851        -1.792614         2.986993
 O         2.345177        -0.329454         2.852543
 C         2.245127         0.075019         1.504163
 H        -0.658348        -0.055928         1.173999
 H        -0.177950         0.688395        -0.389463
 H        -0.647887        -1.056893        -0.305884
 H         4.144778        -0.879101         0.284355
 H         1.748121        -2.532857        -0.292185
 H         0.701876        -2.485942         2.187503
 H         2.109881        -3.626111         2.006377
 H         2.321448        -1.881874         4.015362
 H         3.716114        -2.115456         2.830389
 H         2.314549         1.161622         1.316497
