19
Iteration:   904
 C        -0.064520        -0.120122         0.322922
 C         1.259794        -0.664185         0.443100
 O         2.185962        -0.225670        -0.691592
 C         3.095172        -0.785424         0.437646
 C         1.989625        -2.024347         0.642705
 C         1.790477        -2.512454         2.032264
 C         2.509602        -1.701087         3.055661
 O         2.357163        -0.303864         2.827743
 C         2.240256         0.103482         1.433574
 H        -0.517110        -0.126199         1.339632
 H         0.080401         0.850269        -0.240856
 H        -0.807234        -0.704216        -0.275608
 H         4.121651        -0.815576         0.073341
 H         1.781217        -2.781006        -0.181345
 H         0.686701        -2.506665         2.310563
 H         1.982978        -3.561472         2.111822
 H         2.108064        -1.827726         4.082923
 H         3.547986        -2.019786         3.053856
 H         2.416915         1.201402         1.316703
