19
Iteration:  3249
 C        -0.155302        -0.078657         0.273257
 C         1.268199        -0.483351         0.463409
 O         2.238385        -0.215072        -0.636572
 C         3.034728        -0.885976         0.367130
 C         1.932708        -1.939447         0.647671
 C         1.972394        -2.722676         2.041972
 C         2.543059        -1.682457         3.049458
 O         2.162194        -0.289855         2.816546
 C         2.296248         0.097202         1.479087
 H        -0.691482        -0.470101         1.149436
 H        -0.124795         0.998755         0.198682
 H        -0.602963        -0.680477        -0.507255
 H         4.142315        -1.050660         0.347998
 H         1.854518        -2.511452        -0.277564
 H         0.996544        -3.032191         2.236627
 H         2.798497        -3.506302         1.758878
 H         2.226761        -1.969217         4.047106
 H         3.583381        -1.681254         3.104835
 H         2.627941         1.116754         1.383491
