19
Iteration:  1644charge 0 multiplicity 1
 C        -0.159736        -0.247008         0.331588
 C         1.279913        -0.483643         0.426731
 O         2.264017        -0.236972        -0.726160
 C         3.117510        -0.800000         0.411760
 C         1.970376        -1.915188         0.639933
 C         1.731352        -2.538546         2.082550
 C         2.498492        -1.700521         3.028259
 O         2.329498        -0.319641         2.813181
 C         2.348951         0.072719         1.457508
 H        -0.660711        -0.554193         1.270115
 H        -0.499248         0.804441         0.188470
 H        -0.572808        -0.973704        -0.346821
 H         4.138682        -0.974038         0.300832
 H         1.799563        -2.551395        -0.217995
 H         0.658393        -2.431710         2.269701
 H         2.038196        -3.584524         2.120366
 H         2.095407        -1.801320         4.085753
 H         3.477246        -2.010126         3.055791
 H         2.526740         1.119754         1.520090
