19
Iteration:  3668
 C        -0.105549        -0.236503         0.323646
 C         1.280920        -0.590424         0.516812
 O         2.228244        -0.169681        -0.579093
 C         3.058839        -0.908140         0.390095
 C         1.955393        -1.982441         0.610258
 C         1.825726        -2.549389         1.998639
 C         2.424259        -1.662371         3.053974
 O         2.362827        -0.195785         2.765666
 C         2.337240         0.036771         1.429467
 H        -0.815337        -0.958471         0.723579
 H        -0.392185         0.686572         0.869743
 H        -0.370808        -0.438667        -0.745541
 H         4.145598        -0.949966         0.315944
 H         1.812375        -2.536966        -0.353886
 H         0.788455        -2.562998         2.096360
 H         2.304293        -3.449867         2.071747
 H         1.825546        -1.759134         3.912644
 H         3.531854        -1.786964         3.269374
 H         2.329974         1.105678         1.166713
