19
Iteration:  2400charge 0 multiplicity 1
 C        -0.205660        -0.052609         0.310068
 C         1.246449        -0.503256         0.489188
 O         2.269999        -0.241812        -0.590807
 C         3.072099        -0.964835         0.460902
 C         1.931392        -1.968163         0.612033
 C         1.924880        -2.588473         1.957789
 C         2.514887        -1.630200         3.018530
 O         2.228306        -0.271280         2.804117
 C         2.309955         0.004546         1.464540
 H        -0.742690        -0.497463         1.151034
 H        -0.207149         1.045459         0.332674
 H        -0.413162        -0.369643        -0.715247
 H         4.177095        -1.178282         0.184882
 H         1.925042        -2.555764        -0.335130
 H         0.817775        -3.041920         2.137000
 H         2.577819        -3.428057         1.984371
 H         2.157976        -1.758781         4.046101
 H         3.595618        -1.861890         3.025837
 H         2.539312         1.080708         1.208031
