19
Iteration:  3152
 C        -0.132942        -0.318256         0.281470
 C         1.298486        -0.466418         0.461107
 O         2.192438        -0.175825        -0.670708
 C         3.118986        -0.822690         0.367456
 C         1.956289        -1.875229         0.601515
 C         1.751878        -2.565897         1.985804
 C         2.475447        -1.665576         3.050718
 O         2.292626        -0.310800         2.943844
 C         2.382031         0.049036         1.501768
 H        -0.755924        -0.715046         1.151332
 H        -0.249745         0.747078         0.072458
 H        -0.233171        -0.946285        -0.591705
 H         4.181315        -0.995318        -0.028002
 H         1.698788        -2.480387        -0.304054
 H         0.668545        -2.584062         2.246958
 H         2.339040        -3.516761         2.004107
 H         2.135547        -1.947663         3.982173
 H         3.686954        -2.079975         2.893229
 H         2.497133         1.080322         1.396652
