19
Iteration:  3039
 C        -0.131115        -0.204166         0.218796
 C         1.259667        -0.513202         0.445519
 O         2.262264        -0.195461        -0.630741
 C         3.069585        -0.831586         0.537508
 C         1.902203        -1.914556         0.584495
 C         1.803796        -2.584879         1.997226
 C         2.631756        -1.715945         3.001087
 O         2.295505        -0.280696         2.838903
 C         2.258897         0.049060         1.516496
 H        -0.733674        -0.437397         1.064678
 H        -0.254781         0.845226         0.024470
 H        -0.751189        -0.941010        -0.334539
 H         4.127185        -1.061663         0.488042
 H         1.753604        -2.589911        -0.231971
 H         0.716265        -2.592206         2.080075
 H         2.404453        -3.642220         1.907707
 H         2.224229        -1.855020         4.057208
 H         3.658509        -1.918527         2.898991
 H         2.329762         1.187178         1.288691
