19
Iteration:  3566charge 0 multiplicity 1
 C        -0.180092        -0.212730         0.203905
 C         1.236937        -0.577380         0.472447
 O         2.295755        -0.244061        -0.636801
 C         3.087163        -0.808740         0.470547
 C         1.882030        -1.877747         0.660572
 C         1.812393        -2.512898         1.993833
 C         2.611240        -1.703532         3.025942
 O         2.267585        -0.307433         2.874773
 C         2.295779         0.036770         1.443356
 H        -0.676851         0.011094         1.196673
 H        -0.279471         0.746026        -0.375936
 H        -0.796575        -0.877399        -0.402346
 H         4.203502        -1.040137         0.435163
 H         1.825289        -2.523131        -0.216190
 H         0.808652        -2.772278         2.281791
 H         2.279996        -3.432349         1.960438
 H         2.299204        -1.849745         4.103734
 H         3.749987        -1.808932         2.890191
 H         2.560131         1.033923         1.260401
