19
Iteration:  3601charge 0 multiplicity 1
 C        -0.124776        -0.004295         0.179430
 C         1.237088        -0.568459         0.478991
 O         2.235069        -0.215964        -0.634660
 C         3.060673        -0.877257         0.439625
 C         1.962918        -2.002449         0.689938
 C         1.922180        -2.642456         2.102457
 C         2.621806        -1.631865         3.002078
 O         2.105141        -0.309698         2.828146
 C         2.273300         0.035523         1.430317
 H        -0.732932        -0.445783         1.003873
 H         0.045834         1.082096         0.436050
 H        -0.552004        -0.418181        -0.779066
 H         4.155608        -1.024952         0.127829
 H         1.759201        -2.761237        -0.133925
 H         0.932027        -2.815412         2.587868
 H         2.536471        -3.501448         1.999121
 H         2.597537        -1.927974         4.038596
 H         3.716801        -1.753082         2.678695
 H         2.581727         1.060068         1.258574
