19
Iteration:  2757
 C        -0.129341        -0.158765         0.347869
 C         1.333467        -0.486860         0.476701
 O         2.192644        -0.192935        -0.657187
 C         3.116077        -0.868597         0.336619
 C         1.986927        -1.909254         0.645281
 C         1.878517        -2.652657         2.041682
 C         2.466275        -1.666680         3.064766
 O         2.130611        -0.310842         2.811951
 C         2.409023         0.064633         1.446128
 H        -0.787443        -0.767955         0.978573
 H        -0.249645         0.924130         0.556706
 H        -0.444755        -0.390556        -0.738306
 H         4.125251        -0.878245         0.106540
 H         1.840750        -2.690774        -0.119572
 H         0.744054        -2.869594         2.106488
 H         2.410867        -3.605243         1.979829
 H         2.010528        -1.876378         4.010357
 H         3.589827        -1.978954         3.082679
 H         2.785909         1.124444         1.437466
