19
Iteration:  4594
 C        -0.194289        -0.323356         0.138389
 C         1.218994        -0.508342         0.397748
 O         2.191428        -0.214922        -0.668172
 C         3.057402        -0.795046         0.405803
 C         1.887972        -1.876141         0.695901
 C         1.710665        -2.531474         2.107982
 C         2.585037        -1.686686         3.157314
 O         2.475026        -0.318450         2.817013
 C         2.337258         0.119775         1.480918
 H        -0.636959        -1.145129         0.727864
 H        -0.457547         0.708653         0.291909
 H        -0.334147        -0.569914        -0.928013
 H         4.178001        -1.078971         0.216100
 H         1.956451        -2.638525        -0.121532
 H         0.686511        -2.420879         2.495984
 H         1.926389        -3.670650         2.080577
 H         2.371875        -1.683299         4.230111
 H         3.682154        -2.092041         2.941546
 H         2.661357         1.134925         1.262235
