19
Iteration:  4787charge 0 multiplicity 1
 C        -0.219980        -0.361424         0.208070
 C         1.283776        -0.562964         0.401094
 O         2.241224        -0.126625        -0.598922
 C         3.116333        -0.892589         0.454118
 C         1.898882        -1.882024         0.578182
 C         1.703074        -2.430761         2.073158
 C         2.569721        -1.677311         2.970152
 O         2.396490        -0.296207         2.936497
 C         2.346482         0.028906         1.438058
 H        -0.787419        -0.957746         0.901285
 H        -0.290013         0.675926         0.511130
 H        -0.546650        -0.551161        -0.813434
 H         4.105857        -0.991580         0.126877
 H         1.829629        -2.704717        -0.162676
 H         0.536379        -2.378440         2.296559
 H         1.898383        -3.508726         2.136002
 H         2.432007        -1.766587         4.072387
 H         3.702097        -2.031302         2.915307
 H         2.475016         1.111772         1.330242
