19
Iteration:  2146
 C        -0.208177        -0.226005         0.261822
 C         1.247376        -0.548572         0.428153
 O         2.258502        -0.163751        -0.660619
 C         3.087503        -0.848804         0.386913
 C         1.964965        -1.928574         0.615922
 C         1.730225        -2.445809         1.993049
 C         2.544319        -1.728741         3.060950
 O         2.364887        -0.331468         2.872616
 C         2.373117         0.014753         1.482147
 H        -0.715116        -0.378455         1.180736
 H        -0.334463         0.800190        -0.020106
 H        -0.685223        -0.822851        -0.526007
 H         4.139512        -0.884382         0.262624
 H         1.806018        -2.694211        -0.190469
 H         0.661344        -2.466653         2.290687
 H         1.950210        -3.493603         2.349340
 H         2.058181        -1.951395         4.055400
 H         3.641326        -1.949230         3.163436
 H         2.571852         1.095642         1.476824
