19
Iteration:  4691
 C        -0.082292        -0.010353         0.404020
 C         1.311201        -0.558067         0.426622
 O         2.205923        -0.306822        -0.634937
 C         3.019878        -0.883702         0.378235
 C         1.993994        -1.967824         0.653526
 C         1.971355        -2.587723         2.024332
 C         2.494365        -1.623588         3.062833
 O         2.094900        -0.289497         2.835446
 C         2.313625         0.007100         1.352761
 H        -0.405673         0.278430         1.462960
 H         0.010548         0.816758        -0.346993
 H        -0.804823        -0.790092        -0.025657
 H         4.094337        -0.974156         0.084915
 H         1.840202        -2.489261        -0.339082
 H         1.012504        -3.087802         2.110178
 H         2.788108        -3.361164         2.039018
 H         2.211172        -2.068561         4.004858
 H         3.547149        -1.578716         3.022536
 H         2.550474         1.070653         1.337765
