19
Iteration:  3464
 C        -0.089096        -0.157889         0.419501
 C         1.360028        -0.485142         0.510869
 O         2.271860        -0.295465        -0.711575
 C         3.074326        -0.849858         0.281012
 C         2.002118        -1.886532         0.659630
 C         1.907159        -2.609874         1.983590
 C         2.419512        -1.668924         3.107583
 O         2.102373        -0.318304         2.806904
 C         2.353366         0.083116         1.422194
 H        -0.603652        -0.433191         1.349061
 H        -0.291725         0.896080         0.204773
 H        -0.619960        -0.733549        -0.385048
 H         4.114787        -0.974245        -0.028241
 H         1.709044        -2.494090        -0.218438
 H         0.771734        -2.854945         2.287701
 H         2.476169        -3.543783         1.861939
 H         2.100948        -1.839173         4.251821
 H         3.576795        -1.771046         3.296482
 H         2.381597         1.256483         1.422281
