19
Iteration:    79
 C        -0.049021         0.018462         0.250482
 C         1.274622        -0.726625         0.478085
 O         2.168858        -0.400034        -0.683429
 C         3.070078        -0.742574         0.356743
 C         1.958738        -1.985867         0.639758
 C         1.715716        -2.495000         2.082589
 C         2.466508        -1.665347         3.056374
 O         2.432654        -0.236753         2.859741
 C         2.317861         0.002903         1.434766
 H        -0.873699        -0.731546         0.510510
 H        -0.128317         0.825094         1.007293
 H        -0.401721         0.256410        -0.685665
 H         4.131046        -0.656025         0.102920
 H         1.863623        -2.753053        -0.126092
 H         0.672512        -2.554396         2.327797
 H         2.099506        -3.435007         2.390303
 H         2.243884        -1.915565         4.034858
 H         3.395796        -1.993670         2.852484
 H         2.257463         1.057432         1.362255
