19
Iteration:  4721charge 0 multiplicity 1
 C        -0.231052        -0.080474         0.227362
 C         1.226354        -0.482405         0.417260
 O         2.276986        -0.200970        -0.629060
 C         2.990714        -0.924723         0.408745
 C         1.898967        -1.983703         0.659958
 C         1.992959        -2.671937         2.037730
 C         2.605788        -1.667667         3.091666
 O         2.223516        -0.270796         2.882235
 C         2.343784         0.069252         1.388838
 H        -0.739328         0.232955         1.109531
 H        -0.181775         0.794364        -0.456462
 H        -0.730809        -0.926980        -0.245233
 H         4.001772        -1.019968         0.232558
 H         1.639534        -2.412402        -0.309769
 H         0.913024        -3.056754         2.367997
 H         2.506081        -3.601592         2.157276
 H         2.199980        -2.128777         4.018180
 H         3.741697        -1.758980         3.248279
 H         2.643261         1.117288         1.235442
