19
Iteration:  2608
 C        -0.126740        -0.134540         0.201561
 C         1.275649        -0.539387         0.501658
 O         2.193560        -0.222614        -0.619326
 C         3.038648        -0.839670         0.396367
 C         2.004445        -1.942098         0.594193
 C         1.850704        -2.545064         2.003665
 C         2.503794        -1.739796         3.078785
 O         2.246718        -0.304113         2.838944
 C         2.348214         0.079114         1.498011
 H        -0.764563        -0.340829         1.151360
 H        -0.237282         0.979571         0.084351
 H        -0.526858        -0.626110        -0.693855
 H         4.140688        -1.049823         0.210069
 H         1.890094        -2.660636        -0.216485
 H         0.874064        -2.709302         2.323996
 H         2.337314        -3.510453         2.096606
 H         2.289770        -2.182086         4.041494
 H         3.600201        -1.883425         2.858116
 H         2.545198         1.138766         1.526223
