19
Iteration:  2435charge 0 multiplicity 1
 C        -0.096810        -0.074851         0.290927
 C         1.258184        -0.575558         0.425690
 O         2.206098        -0.292872        -0.707923
 C         3.090708        -0.685756         0.351803
 C         2.020655        -1.834280         0.651322
 C         1.793908        -2.574100         2.061443
 C         2.566668        -1.751964         3.129793
 O         2.250582        -0.427434         2.864660
 C         2.277389         0.050190         1.424564
 H        -0.861268        -0.094106         1.074122
 H         0.040957         0.953203         0.005496
 H        -0.573324        -0.537161        -0.523076
 H         4.164940        -0.973148         0.168785
 H         1.956889        -2.640193        -0.026753
 H         0.650866        -2.660523         2.418392
 H         2.172706        -3.529689         1.963663
 H         2.335676        -1.818101         4.162642
 H         3.619430        -2.151984         2.949215
 H         2.190902         1.116714         1.457037
