19
Iteration:  4287charge 0 multiplicity 1
 C        -0.162626        -0.236708         0.382197
 C         1.289336        -0.526189         0.480819
 O         2.270316        -0.299955        -0.640278
 C         3.083397        -0.845584         0.399369
 C         2.008153        -1.994964         0.626387
 C         1.758329        -2.561050         2.060372
 C         2.461566        -1.632027         3.043913
 O         2.331159        -0.205874         2.814966
 C         2.305780         0.076782         1.330661
 H        -0.577176        -0.277056         1.368668
 H        -0.263065         0.738588        -0.112327
 H        -0.677654        -0.883403        -0.295769
 H         4.176277        -0.850257        -0.011923
 H         1.793725        -2.658562        -0.246154
 H         0.661336        -2.646737         2.195904
 H         2.327772        -3.443067         2.199868
 H         1.957385        -1.608208         4.029862
 H         3.548790        -2.001350         3.074022
 H         2.439197         1.148729         1.303342
