19
Iteration:  4495charge 0 multiplicity 1
 C        -0.161465        -0.099043         0.433348
 C         1.305346        -0.538636         0.427482
 O         2.196229        -0.350589        -0.728012
 C         3.126856        -0.921251         0.452852
 C         1.998482        -2.002128         0.671784
 C         1.918121        -2.578589         2.006977
 C         2.437850        -1.623582         3.086106
 O         2.184785        -0.227195         2.731807
 C         2.362849         0.116548         1.444227
 H        -0.329636         0.157683         1.478301
 H        -0.255491         0.779053        -0.168004
 H        -0.790826        -0.846727        -0.012841
 H         4.197555        -0.884912        -0.021617
 H         1.756893        -2.547774        -0.240607
 H         0.895040        -2.912921         2.183930
 H         2.735404        -3.450919         2.011402
 H         1.955637        -1.931745         3.992973
 H         3.495884        -1.765309         3.120450
 H         2.316823         1.193837         1.502145
