19
Iteration:   758
 C        -0.187779        -0.295195         0.178893
 C         1.215737        -0.473006         0.494957
 O         2.310675        -0.186689        -0.607525
 C         3.024096        -0.969523         0.462852
 C         1.763336        -1.816210         0.685795
 C         1.815484        -2.455659         2.035582
 C         2.589947        -1.668848         3.040299
 O         2.374111        -0.308382         2.778868
 C         2.399407        -0.004132         1.447434
 H        -0.811652        -0.904562         0.845000
 H        -0.470163         0.771036         0.358761
 H        -0.626691        -0.633109        -0.839999
 H         4.084792        -1.120929         0.321838
 H         1.474103        -2.406596        -0.184987
 H         0.713638        -2.466105         2.504467
 H         2.165997        -3.446999         1.943183
 H         2.244448        -1.959055         4.053944
 H         3.788554        -1.825485         3.020107
 H         2.975240         0.896826         1.272989
