19
Iteration:   143charge 0 multiplicity 1
 C        -0.196054        -0.198191         0.314016
 C         1.242444        -0.397844         0.588667
 O         2.380829        -0.305582        -0.688793
 C         3.004492        -1.055270         0.373967
 C         1.790760        -1.878874         0.611327
 C         1.823798        -2.538973         1.974777
 C         2.493583        -1.640204         3.048973
 O         2.303045        -0.203376         2.845353
 C         2.441650         0.073317         1.437969
 H        -0.585714        -0.775287         1.178250
 H        -0.489617         0.845477         0.449843
 H        -0.504865        -0.759697        -0.542568
 H         3.998977        -1.454824         0.232480
 H         1.624507        -2.470634        -0.270999
 H         0.820405        -2.707767         2.243150
 H         2.342232        -3.563975         1.911855
 H         2.250297        -1.877968         4.094648
 H         3.690690        -1.770347         2.930283
 H         2.638854         1.105994         1.256738
