19
Iteration:   381charge 0 multiplicity 1
 C        -0.241331        -0.023657         0.216262
 C         1.227653        -0.574255         0.467790
 O         2.215760        -0.343002        -0.686026
 C         3.080613        -0.864589         0.448305
 C         1.986201        -1.971610         0.642636
 C         1.795982        -2.515398         2.088160
 C         2.564262        -1.642208         3.029124
 O         2.373016        -0.329068         2.808892
 C         2.340851         0.031311         1.472820
 H        -0.904031        -0.253688         1.096846
 H        -0.087755         1.084597         0.305393
 H        -0.831372        -0.429916        -0.615522
 H         4.120691        -0.919928         0.301148
 H         2.095785        -2.758456        -0.091880
 H         0.723876        -2.393766         2.264922
 H         2.079672        -3.473040         2.018674
 H         2.218119        -1.787297         4.064467
 H         3.566629        -1.880523         2.974040
 H         2.483864         1.070870         1.516928
