19
Iteration:  1138
 C        -0.179043        -0.208574         0.198256
 C         1.238508        -0.537661         0.569676
 O         2.333322        -0.217597        -0.592424
 C         2.995691        -0.893962         0.334780
 C         1.887179        -1.889321         0.634016
 C         1.788203        -2.540817         2.069347
 C         2.580005        -1.700336         3.100728
 O         2.335870        -0.283443         2.795366
 C         2.312904         0.091820         1.435095
 H        -0.833506        -0.652873         0.959658
 H        -0.271497         0.856718        -0.022381
 H        -0.478931        -0.797065        -0.674025
 H         4.063179        -1.144912         0.036101
 H         1.642489        -2.482644        -0.238744
 H         0.770232        -2.609258         2.406478
 H         2.166860        -3.635180         2.133267
 H         2.391387        -1.888347         4.156034
 H         3.737895        -1.824251         2.817560
 H         2.559311         1.133228         1.266402
