19
Iteration:   117
 C        -0.187183        -0.209787         0.304586
 C         1.296332        -0.419274         0.405822
 O         2.310331        -0.208231        -0.670735
 C         3.078281        -0.965703         0.372857
 C         1.747448        -1.946485         0.700421
 C         1.772699        -2.503963         2.109336
 C         2.477704        -1.642691         3.078167
 O         2.341826        -0.284011         2.786055
 C         2.484416         0.003086         1.389466
 H        -0.558977        -1.048921         0.878520
 H        -0.506515         0.675124         0.874528
 H        -0.574766        -0.174544        -0.785745
 H         4.166554        -1.068286         0.183993
 H         1.512489        -2.692797        -0.088484
 H         0.664187        -2.754340         2.467328
 H         2.348634        -3.465800         1.988339
 H         2.120724        -1.802595         4.149925
 H         3.596099        -1.881381         3.089240
 H         2.698280         1.100387         1.250079
