19
Iteration:  1431
 C        -0.217585        -0.190585         0.336611
 C         1.282545        -0.611461         0.456500
 O         2.248487        -0.220159        -0.708388
 C         3.123782        -0.788100         0.378446
 C         2.012999        -1.981140         0.681908
 C         1.700229        -2.552801         2.058608
 C         2.460629        -1.709576         3.093191
 O         2.368132        -0.261132         2.794743
 C         2.350246         0.094998         1.403741
 H        -0.770068        -0.617759         1.186965
 H        -0.124222         0.896039         0.285061
 H        -0.518584        -0.632254        -0.664570
 H         4.206449        -0.928241         0.083978
 H         1.931999        -2.692669        -0.205794
 H         0.684561        -2.478317         2.378030
 H         2.041380        -3.511035         2.216308
 H         2.108667        -1.721550         4.094957
 H         3.613513        -2.151797         3.142981
 H         2.342968         1.192252         1.373435
