19
Iteration:  4790
 C        -0.215988        -0.363351         0.217622
 C         1.275539        -0.565149         0.408501
 O         2.267527        -0.140868        -0.610268
 C         3.087864        -0.878389         0.446596
 C         1.865080        -1.869782         0.571941
 C         1.733678        -2.415460         2.077909
 C         2.565106        -1.694871         2.982794
 O         2.390724        -0.282445         2.927222
 C         2.350765         0.026959         1.445927
 H        -0.812299        -1.041019         0.965299
 H        -0.289408         0.660513         0.623610
 H        -0.544409        -0.537568        -0.855393
 H         4.203140        -1.002480         0.156351
 H         1.896629        -2.744742        -0.171659
 H         0.637922        -2.409758         2.322011
 H         1.831108        -3.518267         1.963586
 H         2.345171        -1.827915         4.032939
 H         3.634727        -1.987878         2.962887
 H         2.558635         1.098234         1.302275
