19
Iteration:  4823
 C        -0.212481        -0.233510         0.323699
 C         1.278849        -0.478286         0.487504
 O         2.230986        -0.246854        -0.657895
 C         3.156992        -0.853295         0.387152
 C         1.952891        -1.900473         0.687786
 C         1.827674        -2.638286         2.064115
 C         2.416121        -1.670114         3.040146
 O         2.297647        -0.275560         2.775483
 C         2.389426         0.122563         1.432337
 H        -0.840163        -1.079401         0.809968
 H        -0.514750         0.702095         0.835909
 H        -0.504004        -0.034879        -0.745021
 H         4.284769        -0.993360         0.209661
 H         1.975981        -2.545581        -0.252473
 H         0.734205        -2.856677         2.340105
 H         2.373167        -3.568130         1.827216
 H         2.038626        -1.925842         4.004596
 H         3.527401        -1.906401         2.864999
 H         2.686659         1.175758         1.336957
