19
Iteration:  4346
 C        -0.208860        -0.026101         0.149954
 C         1.253578        -0.482243         0.442344
 O         2.208171        -0.368967        -0.702719
 C         3.041338        -0.910598         0.515671
 C         1.883339        -1.936869         0.764143
 C         1.971244        -2.697000         2.162319
 C         2.618071        -1.597603         2.987992
 O         2.191812        -0.259617         2.852053
 C         2.354022         0.104322         1.383061
 H        -0.945914        -0.607987         0.803684
 H        -0.271348         1.017360         0.500194
 H        -0.368007        -0.220109        -0.944607
 H         4.012866        -1.179311         0.196256
 H         1.777655        -2.530402        -0.156686
 H         1.036155        -3.166930         2.475867
 H         2.620923        -3.509912         1.990481
 H         2.536299        -1.847615         4.049056
 H         3.720813        -1.772469         2.838011
 H         2.454100         1.215396         1.181338
