19
Iteration:  2488
 C        -0.185339        -0.326045         0.241325
 C         1.257804        -0.421061         0.503797
 O         2.418912        -0.136577        -0.617304
 C         3.041081        -0.880441         0.417756
 C         1.824326        -1.872374         0.587589
 C         1.796271        -2.518865         1.977884
 C         2.517940        -1.733442         2.986051
 O         2.336581        -0.304440         2.848978
 C         2.320865         0.021768         1.520859
 H        -0.723774        -0.300076         1.250244
 H        -0.557809         0.645389        -0.132064
 H        -0.721351        -1.130714        -0.245329
 H         4.172924        -1.082134         0.259575
 H         1.463677        -2.722674         0.019351
 H         0.683011        -2.718047         2.364159
 H         2.353511        -3.370305         1.832538
 H         2.134115        -1.763661         3.961465
 H         3.561822        -2.011242         2.987137
 H         2.613163         1.071092         1.357923
