19
Iteration:  4118
 C        -0.223146        -0.164839         0.263612
 C         1.234359        -0.545204         0.383977
 O         2.289677        -0.380622        -0.667979
 C         3.052799        -0.870747         0.477906
 C         1.866918        -1.886990         0.647411
 C         1.858203        -2.545899         2.058130
 C         2.603250        -1.629476         3.084818
 O         2.274335        -0.255050         2.809635
 C         2.351621         0.117750         1.409508
 H        -0.562181        -0.991303         0.899419
 H        -0.405744         0.717427         0.803948
 H        -0.642858        -0.240211        -0.719719
 H         4.017003        -1.097526         0.125956
 H         1.832722        -2.639127        -0.127596
 H         0.824519        -2.508219         2.302501
 H         2.380258        -3.516608         2.151985
 H         2.355166        -1.865133         4.127975
 H         3.750023        -1.843065         3.204241
 H         2.431522         1.247768         1.241523
