19
Iteration:  4548
 C        -0.147939        -0.146655         0.168641
 C         1.239569        -0.540094         0.432242
 O         2.202940        -0.248589        -0.608225
 C         2.974167        -0.947324         0.459692
 C         1.945246        -2.017780         0.637653
 C         1.833100        -2.523375         2.074271
 C         2.704368        -1.622860         3.063202
 O         2.235612        -0.221537         2.843564
 C         2.347826         0.037993         1.469203
 H        -0.803546        -0.594435         0.943960
 H        -0.113160         0.978263         0.144910
 H        -0.521687        -0.450876        -0.844856
 H         4.003765        -1.128045         0.203073
 H         1.676245        -2.609334        -0.250162
 H         0.854421        -2.660656         2.453164
 H         2.310265        -3.529783         2.062349
 H         2.594830        -1.934879         4.119313
 H         3.801743        -1.696875         2.686572
 H         2.353797         1.059442         1.248605
