19
Iteration:  4735
 C        -0.215342        -0.123572         0.128146
 C         1.244024        -0.438031         0.418763
 O         2.218890        -0.268636        -0.678936
 C         3.012107        -0.847321         0.445754
 C         1.911536        -1.890565         0.648947
 C         1.900020        -2.580727         2.060454
 C         2.591422        -1.724037         3.090472
 O         2.329356        -0.318090         2.871151
 C         2.310489         0.035482         1.527106
 H        -0.659165        -0.095272         1.199700
 H        -0.457408         0.780181        -0.473868
 H        -0.749596        -1.001378        -0.373479
 H         4.111125        -1.079554         0.260162
 H         1.904624        -2.789511        -0.043180
 H         0.861189        -2.826766         2.329693
 H         2.512218        -3.485227         1.796154
 H         2.386580        -1.763614         4.151491
 H         3.632846        -1.840986         2.919432
 H         2.566128         1.105945         1.509738
