19
Iteration:  4777
 C        -0.182403        -0.295127         0.188829
 C         1.272665        -0.558365         0.421991
 O         2.193421        -0.109755        -0.591501
 C         3.099033        -0.882045         0.442200
 C         2.018276        -1.987575         0.645824
 C         1.623516        -2.499047         2.028379
 C         2.611076        -1.663501         3.038705
 O         2.409975        -0.279591         2.854817
 C         2.333152         0.045493         1.500334
 H        -0.803213        -0.851526         0.918411
 H        -0.565162         0.721698         0.142770
 H        -0.470313        -0.670586        -0.829045
 H         4.135012        -0.995499         0.172546
 H         1.716816        -2.560325        -0.269629
 H         0.512291        -2.248698         2.300971
 H         1.953660        -3.466899         2.345914
 H         2.497894        -2.048538         4.059016
 H         3.608595        -1.912797         2.527097
 H         2.396593         1.137896         1.415269
