19
Iteration:  3849charge 0 multiplicity 1
 C        -0.217641        -0.257711         0.348694
 C         1.312276        -0.466165         0.462723
 O         2.266694        -0.221338        -0.664482
 C         3.083811        -0.869418         0.350677
 C         2.004634        -1.956129         0.657328
 C         1.765676        -2.576423         2.111625
 C         2.485858        -1.634740         3.033407
 O         2.284014        -0.241954         2.799906
 C         2.380756         0.067914         1.394060
 H        -0.627992        -0.712765         1.229390
 H        -0.417165         0.810776         0.351502
 H        -0.449569        -0.796683        -0.560170
 H         4.155450        -1.111463         0.130889
 H         1.778612        -2.767574        -0.036852
 H         0.707926        -2.783161         2.296144
 H         2.131120        -3.600264         2.079902
 H         1.988565        -1.856602         4.016366
 H         3.578245        -1.775905         2.947240
 H         2.495997         1.114553         1.259687
