19
Iteration:  1018
 C        -0.158013        -0.025538         0.331807
 C         1.264184        -0.580524         0.415744
 O         2.198310        -0.214087        -0.712407
 C         3.064499        -0.912434         0.519560
 C         2.024436        -1.964051         0.709393
 C         1.863064        -2.588599         2.102234
 C         2.523308        -1.663611         3.027797
 O         2.290238        -0.291122         2.734520
 C         2.284713         0.005575         1.388558
 H        -0.737675        -0.555781         1.167579
 H        -0.110063         1.066076         0.339053
 H        -0.816526        -0.241284        -0.552664
 H         4.128236        -1.025614         0.150164
 H         1.991912        -2.646332        -0.121708
 H         0.888528        -2.723568         2.383261
 H         2.247804        -3.667786         2.098517
 H         2.043844        -1.790207         3.987272
 H         3.505398        -1.843034         3.146353
 H         2.580848         1.048873         1.287399
