19
Iteration:  1417charge 0 multiplicity 1
 C        -0.065512        -0.136603         0.293630
 C         1.281908        -0.640129         0.367995
 O         2.155587        -0.356031        -0.690747
 C         3.029551        -0.761346         0.391392
 C         2.060345        -1.919519         0.651265
 C         1.731361        -2.534208         2.064910
 C         2.467804        -1.669201         3.096918
 O         2.377229        -0.261832         2.856291
 C         2.315882         0.067234         1.475697
 H        -0.783013        -0.589891         1.026384
 H        -0.028787         0.940558         0.506280
 H        -0.710014        -0.154568        -0.585242
 H         4.053373        -0.825697         0.117061
 H         2.156116        -2.677178        -0.095339
 H         0.662111        -2.637355         1.989806
 H         2.029145        -3.600989         2.029737
 H         2.187582        -1.949699         4.154973
 H         3.612728        -1.873265         2.926654
 H         2.374859         1.164072         1.364757
