19
Iteration:  1292charge 0 multiplicity 1
 C        -0.211031        -0.197778         0.304768
 C         1.280879        -0.598004         0.456790
 O         2.239297        -0.259181        -0.641645
 C         3.124984        -0.826376         0.370266
 C         1.952559        -1.935499         0.606413
 C         1.794088        -2.442645         2.004131
 C         2.488091        -1.672798         3.067792
 O         2.366414        -0.281902         2.866198
 C         2.327012         0.016210         1.475730
 H        -0.871641         0.124964         1.097507
 H        -0.209461         0.638059        -0.401289
 H        -0.809424        -0.980807        -0.207640
 H         4.207148        -0.987448         0.064400
 H         1.840781        -2.744700        -0.135957
 H         0.660318        -2.350944         2.189783
 H         2.091477        -3.559027         2.095108
 H         2.056775        -1.867308         4.073399
 H         3.670277        -1.996725         3.199702
 H         2.532402         1.053278         1.189694
