19
Iteration:  2474
 C        -0.255091        -0.269582         0.256585
 C         1.257713        -0.527356         0.457282
 O         2.370333        -0.072067        -0.537878
 C         3.063183        -0.971074         0.480780
 C         1.820930        -1.912930         0.596528
 C         1.752105        -2.558526         1.971522
 C         2.515762        -1.653779         2.995467
 O         2.359744        -0.257484         2.851979
 C         2.373713         0.019902         1.446088
 H        -0.682121        -0.247226         1.275723
 H        -0.448771         0.634126        -0.381648
 H        -0.522277        -1.155075        -0.404623
 H         4.140094        -1.186578         0.358443
 H         1.661208        -2.382701        -0.428851
 H         0.800438        -2.929840         2.182149
 H         2.357162        -3.534342         1.907753
 H         2.391596        -2.110251         4.027142
 H         3.603131        -1.680618         2.810537
 H         2.614113         1.143415         1.369495
