19
Iteration:  3633charge 0 multiplicity 1
 C        -0.185987        -0.053997         0.228045
 C         1.241098        -0.481901         0.476100
 O         2.246119        -0.322407        -0.720522
 C         3.017952        -0.918321         0.439286
 C         1.969881        -1.901421         0.672497
 C         2.003192        -2.597681         2.053014
 C         2.541933        -1.699857         3.107168
 O         2.185081        -0.296157         2.833213
 C         2.333136         0.088849         1.405019
 H        -0.659467        -0.821912         0.866832
 H        -0.506924         0.967275         0.588377
 H        -0.574145         0.080900        -0.801538
 H         4.119589        -1.024047         0.139914
 H         1.676203        -2.647482        -0.110596
 H         1.086506        -2.919168         2.387093
 H         2.417026        -3.519514         1.898321
 H         2.087188        -2.052760         4.050521
 H         3.689194        -1.693028         3.276730
 H         2.641897         1.086015         1.509808
