19
Iteration:   263
 C        -0.190401        -0.164197         0.302963
 C         1.280148        -0.450787         0.424357
 O         2.255505        -0.237552        -0.672962
 C         3.026703        -0.950706         0.422134
 C         1.951604        -1.973435         0.641764
 C         1.822103        -2.467410         2.055295
 C         2.517551        -1.740783         3.021690
 O         2.297915        -0.292722         2.827943
 C         2.391493         0.063403         1.470798
 H        -0.767447         0.076957         1.209075
 H        -0.218153         0.749554        -0.289375
 H        -0.716090        -0.959079        -0.115791
 H         4.028016        -1.096857         0.094879
 H         1.827876        -2.703718        -0.093307
 H         0.794604        -2.272144         2.391865
 H         2.097048        -3.605819         2.208726
 H         2.212561        -1.839220         4.027373
 H         3.522161        -1.909712         2.993810
 H         2.710243         1.039831         1.208919
