19
Iteration:  3657charge 0 multiplicity 1
 C        -0.137381        -0.208540         0.294061
 C         1.280281        -0.601726         0.565978
 O         2.216381        -0.219626        -0.602035
 C         3.101170        -0.886405         0.441749
 C         1.956592        -1.951480         0.578887
 C         1.828757        -2.658634         1.975887
 C         2.423578        -1.549200         3.059941
 O         2.322494        -0.217580         2.788468
 C         2.329304         0.075345         1.420589
 H        -0.767458        -0.922611         0.797231
 H        -0.329865         0.847710         0.642155
 H        -0.289472         0.012841        -0.804523
 H         4.075496        -1.079585         0.001991
 H         1.681295        -2.626120        -0.275810
 H         0.924976        -3.111499         2.296997
 H         2.419996        -3.505045         1.973461
 H         2.078742        -1.724072         4.046018
 H         3.533504        -1.865551         3.102500
 H         2.595888         1.129011         1.379652
