19
Iteration:  1197
 C        -0.047736        -0.083105         0.286187
 C         1.213647        -0.659273         0.512961
 O         2.215767        -0.266536        -0.694372
 C         3.101170        -0.814306         0.402654
 C         1.921815        -1.945784         0.694796
 C         1.891788        -2.562315         2.103753
 C         2.526714        -1.663079         3.082133
 O         2.263193        -0.315694         2.741575
 C         2.235656         0.018821         1.397151
 H        -1.017778        -0.405625         0.711362
 H         0.022227         1.000475         0.709478
 H        -0.144064        -0.015405        -0.839479
 H         4.135206        -0.795964         0.141044
 H         1.628733        -2.501541        -0.204693
 H         0.822201        -2.583517         2.387341
 H         2.318969        -3.559286         2.156652
 H         2.309521        -1.865031         4.233416
 H         3.735644        -1.812910         2.988409
 H         2.339542         1.142741         1.387657
