19
Iteration:  1623charge 0 multiplicity 1
 C        -0.167327        -0.234985         0.310749
 C         1.238879        -0.684846         0.447946
 O         2.248278        -0.208204        -0.588547
 C         3.109875        -0.745965         0.431189
 C         2.030672        -2.011896         0.671087
 C         1.632981        -2.534429         2.038588
 C         2.475735        -1.718475         3.018422
 O         2.452871        -0.211051         2.789254
 C         2.304207         0.078949         1.417293
 H        -0.805139        -0.443598         1.141786
 H         0.105650         0.810869         0.314451
 H        -0.631273        -0.620998        -0.551948
 H         4.085824        -0.674735         0.115626
 H         1.946757        -2.577669        -0.197145
 H         0.562291        -2.521223         1.872263
 H         1.951384        -3.601644         2.024986
 H         2.265040        -1.774885         4.117943
 H         3.466337        -2.019676         2.853671
 H         2.274523         1.139827         1.263135
