19
Iteration:  1608charge 0 multiplicity 1
 C        -0.156771        -0.193601         0.262974
 C         1.290217        -0.627383         0.446753
 O         2.145195        -0.229769        -0.616103
 C         3.069863        -0.844421         0.475550
 C         2.029165        -1.971606         0.580896
 C         1.744586        -2.486788         1.990743
 C         2.485563        -1.644195         3.005304
 O         2.441206        -0.270722         2.831392
 C         2.313193         0.039076         1.489289
 H        -0.727034        -0.653074         1.170449
 H        -0.268710         0.938794         0.179078
 H        -0.584869        -0.543202        -0.739031
 H         4.201651        -0.954686         0.361706
 H         2.013727        -2.796055        -0.249655
 H         0.732426        -2.377457         2.363601
 H         1.913918        -3.487559         2.295600
 H         1.973371        -1.867839         3.964245
 H         3.562877        -1.841181         3.100765
 H         2.428614         1.125552         1.274692
