19
Iteration:  1082
 C        -0.261384        -0.144625         0.388965
 C         1.281246        -0.534654         0.523704
 O         2.335375        -0.227405        -0.691107
 C         3.165638        -0.844886         0.373393
 C         1.952986        -1.957166         0.609395
 C         1.761816        -2.569297         2.047441
 C         2.438783        -1.666781         3.048479
 O         2.337830        -0.288450         2.781769
 C         2.302269         0.050319         1.394618
 H        -0.705412         0.021788         1.421531
 H        -0.539912         0.678369        -0.258596
 H        -0.567744        -1.092350        -0.045562
 H         4.292242        -0.861956         0.211566
 H         1.836891        -2.660287        -0.236533
 H         0.719978        -2.696568         2.352938
 H         2.255963        -3.585355         2.196494
 H         2.003364        -1.904566         3.984034
 H         3.647484        -1.935836         3.268362
 H         2.527493         1.087207         1.202944
