19
Iteration:  2944
 C        -0.125917        -0.156352         0.354807
 C         1.285232        -0.559329         0.452077
 O         2.269348        -0.187419        -0.618219
 C         3.076479        -0.839677         0.505367
 C         1.982906        -1.992716         0.643567
 C         1.848657        -2.622807         1.963563
 C         2.476477        -1.700903         2.964139
 O         2.254306        -0.250428         2.802049
 C         2.293740         0.065792         1.434019
 H        -0.798749        -0.705451         1.129940
 H        -0.231498         0.929690         0.520620
 H        -0.632555        -0.573802        -0.586008
 H         4.143825        -0.975124         0.248212
 H         1.789034        -2.503667        -0.365942
 H         0.798446        -2.889689         2.138783
 H         2.509816        -3.414716         1.982522
 H         2.036335        -1.855796         3.942770
 H         3.602871        -1.727505         2.961167
 H         2.288523         1.183420         1.461940
