19
Iteration:   324
 C        -0.236569        -0.148502         0.319336
 C         1.292576        -0.445068         0.467363
 O         2.237166        -0.260721        -0.648835
 C         3.066822        -1.031739         0.360274
 C         1.893601        -1.871550         0.643398
 C         1.890492        -2.516397         2.020497
 C         2.515175        -1.663249         3.146144
 O         2.249423        -0.217640         2.792658
 C         2.447647        -0.056176         1.413411
 H        -0.711523        -0.768694         1.064961
 H        -0.453111         0.921963         0.530743
 H        -0.416802        -0.214538        -0.814796
 H         4.141724        -1.208653         0.114825
 H         1.639156        -2.700250        -0.118062
 H         0.804570        -2.612775         2.251300
 H         2.140674        -3.512448         1.855345
 H         2.136860        -1.819419         4.202617
 H         3.594431        -1.837467         3.145685
 H         2.835080         0.989148         1.206240
