19
Iteration:  3167charge 0 multiplicity 1
 C        -0.183488        -0.357750         0.216654
 C         1.308252        -0.505153         0.587057
 O         2.283574        -0.149945        -0.613493
 C         3.043106        -0.839734         0.411316
 C         1.928989        -1.890022         0.620895
 C         1.731736        -2.532108         1.984274
 C         2.536744        -1.756103         2.976165
 O         2.345864        -0.270887         2.836911
 C         2.372409         0.113484         1.506014
 H        -0.822218        -0.684474         1.110913
 H        -0.689627         0.618376        -0.052944
 H        -0.391317        -0.947246        -0.717381
 H         4.148392        -0.914385         0.294206
 H         1.752364        -2.549060        -0.269623
 H         0.581389        -2.660053         2.162216
 H         1.954777        -3.553990         2.037772
 H         2.307810        -1.962614         4.085452
 H         3.514293        -1.825812         2.827139
 H         2.660585         1.216499         1.508555
