19
Iteration:  3199
 C        -0.231490        -0.247087         0.154467
 C         1.260909        -0.535177         0.400672
 O         2.284262        -0.125615        -0.689570
 C         3.030893        -0.811185         0.516974
 C         1.920403        -1.942504         0.599940
 C         1.764389        -2.507413         2.068852
 C         2.623934        -1.761218         3.038798
 O         2.380724        -0.315647         2.901426
 C         2.259328         0.028411         1.522417
 H        -0.703195        -0.662130         1.120813
 H        -0.432677         0.867657         0.160126
 H        -0.534435        -0.850426        -0.741583
 H         4.143256        -0.827773         0.371353
 H         1.877569        -2.679552        -0.265802
 H         0.609977        -2.443222         2.178816
 H         2.155375        -3.455126         2.053370
 H         2.446849        -2.099984         4.133865
 H         3.824745        -1.838332         2.698586
 H         2.368110         1.155115         1.463307
