19
Iteration:  4550
 C        -0.140363        -0.147881         0.157694
 C         1.235113        -0.552300         0.437980
 O         2.201753        -0.256844        -0.602894
 C         2.964446        -0.932174         0.472508
 C         1.926942        -2.026065         0.621880
 C         1.828649        -2.515960         2.076756
 C         2.716401        -1.625991         3.068454
 O         2.244305        -0.213823         2.839230
 C         2.357228         0.047541         1.471270
 H        -0.848536        -0.595759         0.864655
 H        -0.126377         0.920277         0.180927
 H        -0.554324        -0.451526        -0.804629
 H         4.061660        -1.087528         0.162419
 H         1.739061        -2.603939        -0.297584
 H         0.804113        -2.693819         2.402470
 H         2.252792        -3.607246         2.065885
 H         2.618153        -1.932957         4.096825
 H         3.806517        -1.701536         2.735601
 H         2.378852         1.108892         1.325028
