19
Iteration:  3596
 C        -0.118748        -0.026887         0.175568
 C         1.248083        -0.547963         0.475807
 O         2.229330        -0.217345        -0.607281
 C         3.073274        -0.894974         0.429744
 C         1.962750        -2.054704         0.699787
 C         1.910599        -2.648461         2.064956
 C         2.634339        -1.621901         2.930949
 O         2.125240        -0.293060         2.865907
 C         2.242821         0.071741         1.456654
 H        -0.748332        -0.315557         1.035281
 H        -0.014014         1.015931         0.334152
 H        -0.560070        -0.447455        -0.686970
 H         4.109156        -1.105213         0.259952
 H         1.804442        -2.663728        -0.152792
 H         0.860697        -2.785357         2.381610
 H         2.561073        -3.596735         2.238751
 H         2.513022        -1.841803         4.054518
 H         3.665809        -1.711249         2.641310
 H         2.621390         1.083090         1.142743
