19
Iteration:   713
 C        -0.076700        -0.088859         0.318792
 C         1.251922        -0.600417         0.513606
 O         2.171369        -0.302042        -0.604202
 C         3.019515        -0.804833         0.412669
 C         1.981915        -1.951133         0.646528
 C         1.806910        -2.556629         2.023105
 C         2.503485        -1.666861         3.034823
 O         2.294957        -0.291538         2.759912
 C         2.410921         0.048885         1.426349
 H        -0.731747        -0.140963         1.215651
 H         0.039307         0.964448        -0.011097
 H        -0.667089        -0.629735        -0.470846
 H         4.090880        -1.061596         0.153823
 H         1.949588        -2.691711        -0.155072
 H         0.650209        -2.666435         2.110153
 H         2.197865        -3.571445         1.988116
 H         2.139051        -1.768515         4.035769
 H         3.640311        -1.851909         3.101208
 H         2.388001         1.139087         1.217551
