19
Iteration:  1217charge 0 multiplicity 1
 C        -0.142798         0.016669         0.302193
 C         1.249102        -0.619158         0.360202
 O         2.167098        -0.263706        -0.658810
 C         3.058267        -0.892343         0.396794
 C         2.118438        -2.074093         0.653311
 C         1.785249        -2.575596         2.059021
 C         2.562092        -1.643169         3.073725
 O         2.257242        -0.242658         2.829274
 C         2.326066         0.006632         1.454227
 H        -0.837541        -0.489167         0.988076
 H        -0.316718         1.023491         0.750565
 H        -0.651753        -0.067592        -0.683153
 H         4.128719        -0.855417         0.120808
 H         2.203605        -2.763088        -0.179377
 H         0.779244        -2.464563         2.302234
 H         2.270197        -3.583661         2.142884
 H         2.181728        -1.887929         4.127333
 H         3.587654        -1.735010         3.091815
 H         2.321254         1.080764         1.200240
