19
Iteration:  4792
 C        -0.212617        -0.364368         0.228698
 C         1.264752        -0.563232         0.412596
 O         2.286490        -0.151770        -0.619759
 C         3.067997        -0.867527         0.437096
 C         1.853587        -1.876194         0.573452
 C         1.743064        -2.413449         2.067804
 C         2.568897        -1.704708         3.004998
 O         2.386405        -0.270429         2.910284
 C         2.354602         0.028289         1.458737
 H        -0.785453        -1.059532         0.952827
 H        -0.341899         0.660663         0.670311
 H        -0.529519        -0.509995        -0.834657
 H         4.213082        -1.007635         0.206140
 H         1.914321        -2.708662        -0.158147
 H         0.740066        -2.405275         2.346346
 H         1.822958        -3.510788         1.868031
 H         2.262080        -1.914650         4.032112
 H         3.583322        -1.944312         2.963231
 H         2.609096         1.085286         1.292835
