19
Iteration:  4660
 C        -0.187088        -0.119260         0.490812
 C         1.293097        -0.538276         0.436769
 O         2.296285        -0.330688        -0.696088
 C         3.084053        -0.804076         0.393970
 C         2.046870        -1.893899         0.670942
 C         1.854036        -2.566981         2.044615
 C         2.455257        -1.658099         3.081932
 O         2.188514        -0.333757         2.729209
 C         2.320643         0.052666         1.330631
 H        -0.550647        -0.169218         1.565799
 H        -0.328443         0.914836         0.143635
 H        -0.834190        -0.697783        -0.214608
 H         4.206112        -1.016104         0.152151
 H         1.911438        -2.591164        -0.199476
 H         0.810781        -2.694236         2.180338
 H         2.432904        -3.546760         1.993705
 H         2.037095        -1.866608         4.073730
 H         3.608518        -1.720018         3.124562
 H         2.480182         1.137808         1.431925
