19
Iteration:  3273charge 0 multiplicity 1
 C        -0.220571        -0.072738         0.444092
 C         1.260503        -0.535510         0.405252
 O         2.354041        -0.245277        -0.683019
 C         3.060759        -0.913683         0.391812
 C         1.915840        -1.899680         0.586684
 C         2.031808        -2.544714         1.953592
 C         2.476437        -1.639880         3.092924
 O         2.137127        -0.332450         2.857417
 C         2.286606        -0.005641         1.410335
 H        -0.758312        -0.345445         1.375418
 H        -0.208682         0.973817         0.192279
 H        -0.693385        -0.717711        -0.231252
 H         4.158970        -1.109246         0.523660
 H         1.734354        -2.620393        -0.254453
 H         1.049146        -2.911210         2.101475
 H         2.872849        -3.290805         1.695545
 H         2.118010        -1.986949         4.021351
 H         3.494318        -1.641180         3.231384
 H         2.566555         1.023375         1.319723
