19
Iteration:  4657
 C        -0.171665        -0.146188         0.478086
 C         1.285907        -0.538938         0.447969
 O         2.288844        -0.317131        -0.681263
 C         3.103782        -0.800256         0.392486
 C         2.042109        -1.926955         0.653373
 C         1.849975        -2.547090         2.033668
 C         2.442564        -1.663568         3.079437
 O         2.203689        -0.331836         2.731941
 C         2.320002         0.083296         1.322566
 H        -0.546975        -0.197129         1.531063
 H        -0.351950         0.952252         0.211907
 H        -0.850696        -0.715563        -0.226700
 H         4.146087        -1.000099         0.248802
 H         1.836492        -2.704397        -0.136339
 H         0.798957        -2.719617         2.333530
 H         2.390455        -3.479534         1.923687
 H         2.085246        -1.853902         4.098230
 H         3.491828        -1.758991         3.090128
 H         2.582343         1.122360         1.400284
