19
Iteration:  4212
 C        -0.227745        -0.164619         0.234003
 C         1.283362        -0.560612         0.490040
 O         2.193135        -0.248887        -0.611335
 C         3.063772        -0.922248         0.468898
 C         1.978259        -1.980599         0.664031
 C         1.862365        -2.553990         2.064357
 C         2.466488        -1.613395         3.016708
 O         2.346703        -0.206590         2.783645
 C         2.377912         0.032233         1.396812
 H        -0.699081         0.047406         1.229510
 H        -0.509411         0.683460        -0.496498
 H        -0.642544        -1.138638        -0.114031
 H         4.184883        -1.124583         0.236295
 H         1.870651        -2.687277        -0.210153
 H         0.767477        -2.571296         2.306005
 H         2.358512        -3.508765         2.044538
 H         2.211970        -1.785121         4.067526
 H         3.570894        -1.799951         3.071300
 H         2.530982         1.122400         1.276102
