19
Iteration:  1600
 C        -0.185152        -0.198889         0.236516
 C         1.245295        -0.522658         0.465076
 O         2.192144        -0.230297        -0.658423
 C         3.061664        -0.901206         0.442161
 C         1.971990        -1.955595         0.577364
 C         1.775290        -2.456456         2.024173
 C         2.539023        -1.686117         3.114284
 O         2.392758        -0.270104         2.858006
 C         2.339977         0.012228         1.445987
 H        -0.746348        -0.703683         1.034253
 H        -0.235610         0.881504         0.290934
 H        -0.452953        -0.719195        -0.644075
 H         4.061950        -0.987852         0.184813
 H         2.061044        -2.524961        -0.321111
 H         0.688939        -2.470104         2.168405
 H         2.140782        -3.496948         2.026297
 H         2.098572        -1.914957         4.141256
 H         3.569226        -1.818211         3.200142
 H         2.414584         1.055291         1.245790
