19
Iteration:  2514charge 0 multiplicity 1
 C        -0.161778        -0.188029         0.271968
 C         1.322084        -0.477574         0.449674
 O         2.112193        -0.200588        -0.698460
 C         3.187962        -0.821641         0.503266
 C         2.073618        -1.894158         0.624848
 C         1.757244        -2.564722         2.002686
 C         2.469068        -1.771403         3.067178
 O         2.251062        -0.352102         2.850494
 C         2.397416         0.071422         1.440748
 H        -0.698855        -0.342930         1.189043
 H        -0.391430         0.852844         0.085498
 H        -0.695509        -0.760663        -0.500633
 H         4.200414        -0.826614         0.156398
 H         1.988117        -2.645780        -0.154795
 H         0.589074        -2.494321         2.154407
 H         2.171798        -3.644401         2.035777
 H         2.205657        -1.805285         4.144370
 H         3.595894        -2.079003         2.918675
 H         2.607949         1.131209         1.399642
