19
Iteration:   706charge 0 multiplicity 1
 C        -0.072121        -0.036382         0.376377
 C         1.256734        -0.646045         0.512576
 O         2.205792        -0.318814        -0.637949
 C         3.084637        -0.816737         0.372009
 C         1.981123        -1.997765         0.594086
 C         1.798817        -2.548104         2.047838
 C         2.520350        -1.675351         3.062017
 O         2.282476        -0.329267         2.741866
 C         2.287366         0.113861         1.411000
 H        -0.736741         0.217772         1.213935
 H         0.061096         1.020545         0.129275
 H        -0.721900        -0.709052        -0.246198
 H         4.126846        -0.840372         0.370871
 H         2.046219        -2.746591        -0.222496
 H         0.808177        -2.503866         2.265746
 H         2.297755        -3.503016         1.952046
 H         2.037539        -1.813237         4.092045
 H         3.545902        -1.854678         3.232532
 H         2.372493         1.160076         1.219259
