19
Iteration:  3868
 C        -0.158061        -0.393667         0.357879
 C         1.310860        -0.567895         0.471954
 O         2.186805        -0.310325        -0.656672
 C         3.098855        -0.810670         0.418711
 C         1.939706        -1.826167         0.632666
 C         1.665449        -2.525096         2.020968
 C         2.436278        -1.664480         3.037682
 O         2.414937        -0.211315         2.793633
 C         2.448009         0.128331         1.452259
 H        -0.637134        -1.143147         1.079565
 H        -0.440316         0.675444         0.322108
 H        -0.297665        -0.663386        -0.721278
 H         4.143019        -0.829602         0.231133
 H         1.779336        -2.445498        -0.276080
 H         0.595814        -2.574746         2.022557
 H         1.974815        -3.556388         2.074231
 H         2.080691        -1.603874         4.137895
 H         3.551887        -2.076433         2.972332
 H         2.665729         1.271163         1.446801
