19
Iteration:  4846
 C        -0.057380        -0.091727         0.382978
 C         1.292335        -0.576781         0.498769
 O         2.176998        -0.269111        -0.680931
 C         3.064335        -0.884083         0.365425
 C         2.005260        -1.987767         0.554768
 C         1.944633        -2.611210         2.015154
 C         2.455445        -1.604035         3.132920
 O         2.199057        -0.265280         2.828631
 C         2.295282         0.055498         1.428969
 H        -0.844869        -0.775190         0.859978
 H        -0.124259         0.905032         0.904960
 H        -0.240349         0.138770        -0.693132
 H         4.180745        -0.965174         0.087098
 H         1.805743        -2.605151        -0.354407
 H         0.858629        -2.829422         2.036266
 H         2.449862        -3.590469         1.991994
 H         1.916035        -1.773662         4.041102
 H         3.531827        -1.887705         3.202694
 H         2.381159         1.121030         1.198774
