19
Iteration:  3074charge 0 multiplicity 1
 C        -0.179791        -0.109490         0.331651
 C         1.329284        -0.493673         0.531800
 O         2.216050        -0.214035        -0.671124
 C         3.118864        -0.892056         0.333454
 C         1.986105        -1.910976         0.598094
 C         1.984374        -2.584437         1.986962
 C         2.505654        -1.689653         3.108265
 O         2.050315        -0.338511         2.786300
 C         2.386154         0.038351         1.489934
 H        -0.546684        -0.205939         1.350604
 H        -0.359239         0.909992         0.006811
 H        -0.565904        -0.710940        -0.495599
 H         4.173210        -1.143769         0.152752
 H         1.692864        -2.633906        -0.148118
 H         0.916360        -2.902091         2.230825
 H         2.404684        -3.656874         1.859623
 H         2.226799        -1.770317         4.128251
 H         3.512747        -1.644046         3.114717
 H         2.643008         1.090985         1.577722
