19
Iteration:  3787
 C        -0.132003         0.035410         0.201793
 C         1.200747        -0.519889         0.467458
 O         2.162786        -0.349317        -0.631693
 C         3.024270        -0.850791         0.439950
 C         1.993056        -1.949964         0.759630
 C         2.019216        -2.714136         2.083486
 C         2.626596        -1.663429         2.999789
 O         2.084619        -0.335477         2.773851
 C         2.364435         0.120417         1.420834
 H        -0.671672         0.497406         1.022884
 H         0.028852         0.878332        -0.534989
 H        -0.899990        -0.668783        -0.241758
 H         4.143260        -0.881812         0.445681
 H         1.802012        -2.626849        -0.094366
 H         0.948800        -3.053202         2.366305
 H         2.813219        -3.550130         1.972725
 H         2.388115        -1.706334         4.041630
 H         3.739143        -1.815850         3.028074
 H         2.516117         1.173268         1.429143
