19
Iteration:  4181
 C        -0.117042        -0.005868         0.188152
 C         1.199915        -0.586359         0.465947
 O         2.215115        -0.379431        -0.775056
 C         3.000063        -0.840110         0.452007
 C         1.894210        -1.903715         0.735111
 C         2.012192        -2.538692         2.115080
 C         2.585928        -1.685982         3.146710
 O         2.247344        -0.303798         2.860980
 C         2.290672         0.067023         1.330858
 H        -0.838467        -0.107552         1.088438
 H        -0.246247         1.085444        -0.103563
 H        -0.645433        -0.731915        -0.489321
 H         4.095652        -1.103078         0.352634
 H         1.849626        -2.614764        -0.127687
 H         1.045764        -2.923293         2.551097
 H         2.507723        -3.543218         1.795062
 H         2.392112        -1.842854         4.201567
 H         3.663985        -1.795518         3.003055
 H         2.314712         1.217893         1.330668
