19
Iteration:  4532
 C        -0.157933        -0.093506         0.255015
 C         1.259012        -0.531367         0.461342
 O         2.275033        -0.241732        -0.670487
 C         3.099491        -0.973472         0.357691
 C         1.848426        -1.930027         0.715450
 C         1.963411        -2.557781         2.138086
 C         2.602796        -1.591692         2.990511
 O         2.183135        -0.291667         2.820507
 C         2.251466         0.020966         1.420333
 H        -0.848561        -0.370796         1.080357
 H        -0.343593         0.980717         0.106609
 H        -0.652910        -0.713941        -0.514715
 H         4.210781        -1.105632         0.147826
 H         1.728878        -2.752267        -0.008203
 H         0.866193        -2.866111         2.367657
 H         2.406602        -3.555825         2.138389
 H         2.453992        -1.837861         4.050911
 H         3.650918        -1.644489         2.885453
 H         2.726548         1.073434         1.467460
