19
Iteration:     9charge 0 multiplicity 1
 C        -0.067299        -0.114914         0.276405
 C         1.303269        -0.494324         0.450930
 O         2.216935        -0.252167        -0.671418
 C         3.064112        -0.984724         0.391673
 C         1.853669        -1.920097         0.674570
 C         1.783869        -2.547266         2.062679
 C         2.516960        -1.694185         3.005844
 O         2.307371        -0.214550         2.859880
 C         2.363187         0.055319         1.396879
 H        -0.570767        -0.496670         1.110369
 H        -0.240845         0.939019         0.247697
 H        -0.520594        -0.716825        -0.584147
 H         4.062274        -1.480167         0.297030
 H         1.346920        -2.647568         0.039674
 H         0.860933        -2.695085         2.470774
 H         2.312090        -3.578804         2.138116
 H         2.256196        -1.891787         4.108587
 H         3.506513        -1.900361         2.882613
 H         2.719009         1.133136         1.347549
