19
Iteration:   271charge 0 multiplicity 1
 C        -0.180235        -0.120001         0.321883
 C         1.283401        -0.517647         0.426043
 O         2.213043        -0.302007        -0.643065
 C         3.075332        -0.857554         0.411120
 C         1.978883        -1.996090         0.609192
 C         1.750674        -2.529701         2.051898
 C         2.542555        -1.687979         3.046363
 O         2.334020        -0.291739         2.801459
 C         2.366028         0.079347         1.455819
 H        -0.586682         0.044822         1.317386
 H        -0.147156         0.850420        -0.228119
 H        -0.743576        -0.825770        -0.365578
 H         4.160214        -0.912362         0.306169
 H         1.925891        -2.678636        -0.252670
 H         0.651271        -2.387089         2.318591
 H         1.848249        -3.569469         2.225950
 H         2.112610        -1.836988         4.093226
 H         3.695549        -2.017488         3.010430
 H         2.467587         1.172951         1.355416
