19
Iteration:  3354charge 0 multiplicity 1
 C        -0.247850        -0.365468         0.197876
 C         1.262835        -0.545042         0.411672
 O         2.329203        -0.061682        -0.585680
 C         3.019138        -0.822633         0.449565
 C         1.946986        -1.911689         0.585063
 C         1.709323        -2.506456         2.063932
 C         2.551664        -1.695402         3.068552
 O         2.453577        -0.302872         2.823649
 C         2.313831         0.029425         1.510665
 H        -0.720279        -0.594081         1.133284
 H        -0.586717         0.624263        -0.129703
 H        -0.566726        -0.975954        -0.701220
 H         4.071279        -1.005396         0.371811
 H         1.704627        -2.596654        -0.240098
 H         0.643718        -2.775748         2.315921
 H         2.049514        -3.452013         1.925942
 H         2.197343        -1.947324         4.111972
 H         3.501320        -1.974513         2.870035
 H         2.454917         1.135681         1.276725
