19
Iteration:  2748charge 0 multiplicity 1
 C        -0.113273        -0.122802         0.340153
 C         1.332215        -0.531611         0.497333
 O         2.194101        -0.230498        -0.654902
 C         3.049326        -0.814125         0.337058
 C         2.060666        -1.957985         0.669691
 C         1.843816        -2.603638         1.996445
 C         2.421654        -1.683828         3.092262
 O         2.174507        -0.345864         2.784588
 C         2.366518         0.073075         1.444852
 H        -0.601890        -0.599653         1.143460
 H        -0.179786         0.920440         0.579038
 H        -0.282343        -0.222562        -0.723385
 H         4.050729        -0.968486        -0.039900
 H         2.009839        -2.448124        -0.316135
 H         0.811277        -2.950686         2.239301
 H         2.491248        -3.588731         2.074564
 H         2.088435        -1.982121         4.067073
 H         3.529303        -1.637815         3.168619
 H         2.580528         1.176707         1.382794
