19
Iteration:   309
 C        -0.141792        -0.059538         0.331733
 C         1.271978        -0.557539         0.437159
 O         2.211865        -0.305779        -0.675223
 C         3.071015        -0.871952         0.438027
 C         1.971371        -2.003252         0.621149
 C         1.758994        -2.586178         2.046596
 C         2.517010        -1.633921         3.080763
 O         2.350554        -0.284405         2.783499
 C         2.361379         0.081877         1.403585
 H        -0.806856        -0.617788         1.029119
 H        -0.265235         0.987088         0.586218
 H        -0.671903        -0.377652        -0.535800
 H         4.157684        -1.013082         0.199014
 H         1.830349        -2.592206        -0.304542
 H         0.694937        -2.519539         2.276031
 H         2.220612        -3.645225         2.290292
 H         1.991083        -1.801683         3.996317
 H         3.536700        -1.817382         3.234232
 H         2.532445         1.191784         1.368223
