19
Iteration:  2480charge 0 multiplicity 1
 C        -0.237031        -0.296071         0.230662
 C         1.260982        -0.485966         0.501041
 O         2.410438        -0.073344        -0.578944
 C         3.077952        -0.967308         0.465079
 C         1.798099        -1.895960         0.612401
 C         1.782212        -2.508882         1.950768
 C         2.505476        -1.667086         2.988248
 O         2.356726        -0.274956         2.838235
 C         2.332659         0.012455         1.492544
 H        -0.668929        -0.321052         1.231033
 H        -0.508961         0.622964        -0.244765
 H        -0.660578        -1.170766        -0.229200
 H         4.151617        -1.045375         0.291038
 H         1.508925        -2.543657        -0.204215
 H         0.764227        -3.011805         2.325921
 H         2.430810        -3.395640         1.983153
 H         2.277451        -1.990645         3.996826
 H         3.549283        -2.065707         2.716136
 H         2.576961         1.001300         1.285357
