19
Iteration:  1686
 C        -0.135723        -0.133931         0.322876
 C         1.305267        -0.500113         0.510543
 O         2.326009        -0.187396        -0.638742
 C         3.008476        -0.967687         0.383835
 C         1.893252        -1.987784         0.660883
 C         1.918097        -2.665895         2.004206
 C         2.467938        -1.600721         3.008348
 O         2.212025        -0.264395         2.795914
 C         2.332118         0.069961         1.457284
 H        -0.832449        -0.091040         1.255957
 H        -0.173376         0.976167        -0.031471
 H        -0.671528        -0.765528        -0.425244
 H         4.019070        -0.971870         0.099548
 H         1.472984        -2.707566        -0.089154
 H         0.978717        -3.008099         2.345245
 H         2.637927        -3.390165         2.146862
 H         2.289005        -1.950614         4.092525
 H         3.585704        -1.720360         2.832564
 H         2.545471         1.081556         1.267642
