19
Iteration:  4312charge 0 multiplicity 1
 C        -0.152966        -0.115762         0.260187
 C         1.245230        -0.581068         0.434915
 O         2.168373        -0.249499        -0.679742
 C         3.098814        -0.941739         0.388413
 C         1.888227        -1.960198         0.645099
 C         1.968746        -2.539242         2.080954
 C         2.555209        -1.599413         3.096045
 O         2.191594        -0.230377         2.877527
 C         2.402394        -0.014051         1.364564
 H        -0.759028        -0.497550         1.127330
 H        -0.091812         0.980268         0.111569
 H        -0.606821        -0.424084        -0.720297
 H         4.127516        -1.333477         0.174729
 H         1.829862        -2.805729        -0.067388
 H         0.902908        -2.642914         2.365341
 H         2.496346        -3.442767         2.143520
 H         2.035259        -1.684365         4.024333
 H         3.684402        -1.767849         3.167701
 H         2.482839         1.103308         1.450012
