19
Iteration:  4679
 C        -0.111552        -0.033366         0.425798
 C         1.283370        -0.545000         0.439463
 O         2.206298        -0.328959        -0.795306
 C         3.128877        -0.864689         0.393054
 C         2.018989        -1.997341         0.601611
 C         1.975664        -2.676575         2.000743
 C         2.503414        -1.675850         3.091001
 O         2.071544        -0.248190         2.839815
 C         2.316716         0.132711         1.455052
 H        -0.321456         0.229457         1.494494
 H        -0.207404         0.987804        -0.046844
 H        -0.962038        -0.679957         0.060580
 H         4.190975        -0.967365         0.254300
 H         1.800676        -2.800400        -0.148220
 H         0.944810        -2.829732         2.377972
 H         2.450763        -3.665551         1.980730
 H         2.117654        -1.811325         4.098561
 H         3.549211        -1.726276         3.145381
 H         2.533209         1.203535         1.365816
