19
Iteration:   378
 C        -0.258671        -0.031599         0.222949
 C         1.241537        -0.567628         0.473145
 O         2.209152        -0.337345        -0.667093
 C         3.068047        -0.886543         0.491247
 C         1.976048        -1.963686         0.645429
 C         1.807213        -2.498859         2.084273
 C         2.556981        -1.628460         3.007707
 O         2.355661        -0.331835         2.814790
 C         2.369808         0.045222         1.437204
 H        -0.847543        -0.295103         1.082860
 H        -0.120881         1.055391         0.366274
 H        -0.764979        -0.433946        -0.734182
 H         4.148611        -1.022934         0.218953
 H         2.022371        -2.771390        -0.178042
 H         0.719462        -2.483171         2.295483
 H         2.258761        -3.539708         1.992590
 H         2.180472        -1.807444         4.056016
 H         3.550084        -1.971225         2.949940
 H         2.619277         1.138671         1.428421
