19
Iteration:  2386charge 0 multiplicity 1
 C        -0.100065        -0.169214         0.316248
 C         1.270456        -0.557536         0.531083
 O         2.321386        -0.196381        -0.599587
 C         3.022747        -0.968992         0.381870
 C         1.827831        -1.901189         0.556069
 C         1.905206        -2.597329         1.934945
 C         2.492949        -1.635226         3.056064
 O         2.184645        -0.191896         2.865017
 C         2.423780         0.021250         1.448993
 H        -0.907985        -0.544177         0.996921
 H        -0.295770         0.944928         0.391324
 H        -0.612702        -0.504387        -0.693563
 H         4.052710        -1.271269         0.211746
 H         1.387363        -2.658103        -0.220119
 H         0.963538        -3.152728         2.405489
 H         2.625806        -3.536363         1.718554
 H         2.215952        -2.066339         4.067406
 H         3.571307        -1.638699         3.015954
 H         2.722055         1.134397         1.344454
