19
Iteration:  3205
 C        -0.182268        -0.222354         0.166544
 C         1.201001        -0.517503         0.408307
 O         2.286643        -0.154480        -0.682320
 C         3.008346        -0.779477         0.467142
 C         1.955813        -1.950901         0.633197
 C         1.795852        -2.535592         2.015157
 C         2.634946        -1.725589         3.065279
 O         2.348881        -0.314058         2.937664
 C         2.264212         0.025661         1.516657
 H        -0.757090        -0.680402         0.950097
 H        -0.218124         0.847554         0.098184
 H        -0.545768        -0.779726        -0.676363
 H         4.056092        -0.855171         0.143560
 H         1.809314        -2.619171        -0.198585
 H         0.759889        -2.397834         2.207018
 H         2.052814        -3.692203         2.104241
 H         2.567961        -2.078509         4.049271
 H         3.605542        -2.058908         2.808599
 H         2.302348         1.074466         1.352084
