19
Iteration:  2797charge 0 multiplicity 1
 C        -0.239851        -0.264165         0.252629
 C         1.256001        -0.539437         0.408386
 O         2.343047        -0.168677        -0.618760
 C         3.077040        -0.844914         0.514784
 C         1.906097        -1.945190         0.615347
 C         1.790579        -2.554915         1.953790
 C         2.519714        -1.739915         2.964642
 O         2.332549        -0.247826         2.869930
 C         2.318686         0.070897         1.517578
 H        -0.609742        -0.590540         1.217177
 H        -0.463134         0.836600         0.267233
 H        -0.597829        -0.619499        -0.693782
 H         4.170940        -0.998816         0.371108
 H         1.621527        -2.538148        -0.214905
 H         0.798614        -2.723470         2.294569
 H         2.256148        -3.517181         2.017376
 H         2.449432        -1.894437         4.046810
 H         3.541861        -1.807436         2.803367
 H         2.420548         1.120282         1.333131
