19
Iteration:    27
 C        -0.112675        -0.184522         0.275386
 C         1.353100        -0.401050         0.487328
 O         2.287004        -0.268809        -0.663225
 C         2.974874        -1.120283         0.369464
 C         1.724981        -1.894588         0.648374
 C         1.791296        -2.561625         2.022587
 C         2.584390        -1.572196         3.050737
 O         2.240717        -0.210011         2.855753
 C         2.465990         0.037573         1.487051
 H        -0.833224        -0.951990         0.804846
 H        -0.471361         0.847701         0.556772
 H        -0.297358        -0.374394        -0.795812
 H         3.990242        -1.304387        -0.023277
 H         1.469378        -2.584135        -0.219380
 H         0.730252        -2.968904         2.506496
 H         2.388008        -3.455427         1.912195
 H         2.475724        -1.773548         4.122126
 H         3.799357        -1.687249         2.766909
 H         2.853230         1.067624         1.386362
