19
Iteration:  3291
 C        -0.135236        -0.133622         0.420531
 C         1.322027        -0.503171         0.450968
 O         2.232385        -0.188100        -0.647051
 C         3.083547        -0.866783         0.452072
 C         2.016570        -1.984202         0.587917
 C         1.930716        -2.681871         1.962605
 C         2.453740        -1.701255         3.046302
 O         2.110438        -0.261387         2.759606
 C         2.361742         0.062389         1.427180
 H        -0.488732        -0.219728         1.473840
 H        -0.278663         0.954672         0.237868
 H        -0.872721        -0.749891        -0.201796
 H         4.104376        -1.007326         0.063047
 H         1.888068        -2.614083        -0.276826
 H         0.861413        -2.927716         2.255259
 H         2.651637        -3.540432         2.064213
 H         1.943194        -1.699965         4.064475
 H         3.666166        -1.654877         3.189117
 H         2.571705         1.141524         1.338255
