19
Iteration:  4129charge 0 multiplicity 1
 C        -0.142331        -0.167902         0.295974
 C         1.267575        -0.538949         0.417790
 O         2.287135        -0.325727        -0.660497
 C         3.036713        -0.966560         0.408972
 C         1.873144        -1.944739         0.676052
 C         1.925834        -2.492905         2.081900
 C         2.600166        -1.577856         3.045818
 O         2.226536        -0.256640         2.790427
 C         2.252896         0.041861         1.450380
 H        -0.919473        -0.747680         0.819110
 H        -0.233827         0.843340         0.584281
 H        -0.473844        -0.066442        -0.720661
 H         4.084889        -1.072184         0.413335
 H         1.596960        -2.582404        -0.154541
 H         1.047514        -2.836304         2.578717
 H         2.360111        -3.494630         1.888436
 H         2.269078        -1.717008         4.073943
 H         3.701316        -1.613934         2.747453
 H         2.512736         1.154639         1.352320
