19
Iteration:  2311
 C        -0.120261        -0.201636         0.253851
 C         1.254136        -0.644007         0.409333
 O         2.221391        -0.168077        -0.604305
 C         3.066902        -0.870383         0.514188
 C         1.967051        -1.915652         0.607612
 C         1.727642        -2.521610         1.965464
 C         2.538246        -1.692905         3.040109
 O         2.363584        -0.273514         2.857673
 C         2.318664         0.039321         1.459515
 H        -0.581304        -0.050818         1.213214
 H        -0.172363         0.825567        -0.110725
 H        -0.874157        -0.701256        -0.371209
 H         4.168161        -0.908118         0.296193
 H         1.992927        -2.578245        -0.306176
 H         0.578121        -2.663745         2.068762
 H         1.984406        -3.481535         2.075688
 H         2.387782        -2.060188         4.084157
 H         3.571602        -2.003244         2.852955
 H         2.492679         1.158860         1.331264
