19
Iteration:  4200
 C        -0.207428        -0.150528         0.220750
 C         1.206072        -0.498525         0.385942
 O         2.250963        -0.349081        -0.697061
 C         3.053596        -0.875069         0.442093
 C         1.940798        -1.943446         0.704334
 C         1.873846        -2.630601         2.055726
 C         2.598151        -1.632197         3.101021
 O         2.334078        -0.224743         2.817815
 C         2.293281         0.104093         1.493544
 H        -0.631909         0.074031         1.216749
 H        -0.250042         0.839427        -0.374735
 H        -0.933343        -0.841546        -0.287787
 H         4.161430        -0.929442         0.060629
 H         1.636459        -2.631647        -0.131239
 H         0.868990        -3.039573         2.350179
 H         2.401315        -3.547719         2.177881
 H         2.022805        -1.732573         4.038762
 H         3.697587        -1.857796         3.055217
 H         2.502809         1.151059         1.306351
