19
Iteration:  4697charge 0 multiplicity 1
 C        -0.078303        -0.024362         0.367945
 C         1.237857        -0.566542         0.461284
 O         2.219087        -0.273595        -0.602879
 C         3.042083        -0.928471         0.374969
 C         1.962319        -1.921013         0.665396
 C         1.993076        -2.566740         1.990360
 C         2.494930        -1.593620         3.043114
 O         2.104825        -0.306242         2.789771
 C         2.332569        -0.030679         1.416091
 H        -0.463422         0.333213         1.274018
 H         0.000581         0.815465        -0.319435
 H        -0.705913        -0.787746        -0.000954
 H         4.056403        -0.981517         0.056578
 H         1.876766        -2.546496        -0.214063
 H         1.055990        -3.239716         2.181176
 H         2.747293        -3.334827         2.097469
 H         2.233585        -1.890217         4.101213
 H         3.665546        -1.771718         3.008898
 H         2.458669         1.044665         1.181196
