19
Iteration:  4989
 C        -0.184655        -0.305276         0.207190
 C         1.282789        -0.463464         0.505392
 O         2.220884        -0.189935        -0.655961
 C         3.063164        -0.830210         0.402632
 C         1.945999        -1.843982         0.621019
 C         1.796367        -2.560984         1.991091
 C         2.490207        -1.760127         3.075470
 O         2.303136        -0.311461         2.866047
 C         2.420676         0.080557         1.530527
 H        -0.515116         0.500374         0.827291
 H        -0.315554        -0.156477        -0.898668
 H        -0.767591        -1.170519         0.513278
 H         4.103352        -1.048471         0.069686
 H         1.711827        -2.393348        -0.284624
 H         0.718239        -2.635415         2.310413
 H         2.354306        -3.459849         1.785912
 H         2.243071        -1.867150         4.063071
 H         3.636197        -1.898732         3.041298
 H         2.605915         1.145871         1.401518
