19
Iteration:  1695charge 0 multiplicity 1
 C        -0.113987        -0.048468         0.284422
 C         1.233422        -0.547289         0.446004
 O         2.250648        -0.231031        -0.587179
 C         3.046645        -0.911836         0.407074
 C         1.943462        -2.022375         0.656984
 C         1.927362        -2.650281         2.028133
 C         2.514163        -1.689376         3.031262
 O         2.209812        -0.223403         2.797743
 C         2.287476         0.083861         1.406696
 H        -0.665076        -0.080455         1.291111
 H         0.002071         1.031180         0.105733
 H        -0.775124        -0.619275        -0.369531
 H         4.126497        -1.169111         0.305179
 H         1.859987        -2.734536        -0.234014
 H         0.894061        -2.939417         2.312859
 H         2.550038        -3.531787         1.894092
 H         2.249003        -1.841562         4.097354
 H         3.696373        -1.758684         2.974806
 H         2.559768         1.133260         1.310840
