19
Iteration:  1358charge 0 multiplicity 1
 C        -0.147598        -0.161998         0.278436
 C         1.324418        -0.411265         0.418967
 O         2.249313        -0.267996        -0.663564
 C         2.991281        -1.035966         0.417526
 C         1.771934        -1.879718         0.650807
 C         1.904896        -2.561505         2.032868
 C         2.620241        -1.637145         3.047185
 O         2.173147        -0.260420         2.841495
 C         2.395944         0.052791         1.467647
 H        -0.760168        -0.597792         1.085678
 H        -0.306636         0.879648        -0.025896
 H        -0.086840        -0.807062        -0.602218
 H         4.102831        -1.214644         0.301827
 H         1.543456        -2.585712        -0.170431
 H         0.890225        -2.790176         2.519677
 H         2.579599        -3.490531         1.792251
 H         2.416945        -1.994439         4.097826
 H         3.771961        -1.649472         2.973105
 H         2.680437         1.115305         1.604704
