19
Iteration:  4583charge 0 multiplicity 1
 C        -0.192047        -0.250739         0.087263
 C         1.265562        -0.528572         0.464447
 O         2.204921        -0.258696        -0.656537
 C         2.983407        -0.853696         0.450020
 C         1.981749        -1.880313         0.710111
 C         1.694168        -2.477274         2.157987
 C         2.621130        -1.756639         3.113358
 O         2.475019        -0.281111         2.784965
 C         2.269434         0.118325         1.445040
 H        -0.921675        -0.817130         0.713072
 H        -0.648602         0.684085         0.362353
 H        -0.389207        -0.487842        -0.968025
 H         4.127441        -0.897075         0.203285
 H         1.906504        -2.654727        -0.105258
 H         0.627414        -2.625258         2.070431
 H         2.199386        -3.530437         2.107310
 H         2.560729        -1.831742         4.199934
 H         3.740872        -2.062780         2.840968
 H         2.374471         1.198559         1.570392
