19
Iteration:  3890
 C        -0.254529        -0.380458         0.260052
 C         1.269416        -0.579438         0.477668
 O         2.254973        -0.175445        -0.675590
 C         3.060651        -0.878022         0.381848
 C         2.000962        -1.917610         0.633760
 C         1.720431        -2.417624         2.056197
 C         2.443637        -1.686687         3.095542
 O         2.519094        -0.245825         2.819844
 C         2.336051         0.072476         1.428114
 H        -0.570281        -1.182026         1.030229
 H        -0.690345         0.635135         0.406754
 H        -0.620216        -0.624446        -0.772948
 H         4.106928        -0.904773         0.179659
 H         1.894604        -2.608772        -0.219159
 H         0.619756        -2.241154         2.193100
 H         1.876689        -3.449781         2.349783
 H         1.917286        -1.693525         4.123367
 H         3.526745        -2.145265         3.208519
 H         2.579574         1.196830         1.376522
