19
Iteration:  4311charge 0 multiplicity 1
 C        -0.147176        -0.122491         0.262351
 C         1.239772        -0.588425         0.427899
 O         2.162550        -0.243222        -0.682571
 C         3.100578        -0.939253         0.384161
 C         1.892678        -1.960340         0.645514
 C         1.960178        -2.550931         2.071171
 C         2.543706        -1.600886         3.099300
 O         2.196573        -0.220568         2.874427
 C         2.410611        -0.014137         1.376668
 H        -0.739722        -0.462178         1.125063
 H        -0.121912         0.969340         0.116409
 H        -0.625733        -0.433336        -0.679622
 H         4.162472        -1.358055         0.203786
 H         1.862751        -2.822239        -0.056056
 H         0.893249        -2.613257         2.348782
 H         2.494473        -3.413190         2.166308
 H         2.061479        -1.678042         4.060847
 H         3.690354        -1.751989         3.149167
 H         2.500699         1.090226         1.473378
