19
Iteration:  3863charge 0 multiplicity 1
 C        -0.137867        -0.366464         0.337826
 C         1.304185        -0.551468         0.514856
 O         2.208760        -0.274453        -0.689158
 C         3.093029        -0.824669         0.405759
 C         1.946004        -1.898207         0.688149
 C         1.689768        -2.547209         2.004514
 C         2.422256        -1.679862         3.043216
 O         2.377389        -0.210888         2.793712
 C         2.443429         0.157716         1.429574
 H        -0.591077        -0.997652         1.068155
 H        -0.530339         0.668747         0.348345
 H        -0.561560        -0.673317        -0.658524
 H         4.189653        -0.844169         0.100115
 H         1.815386        -2.397628        -0.280371
 H         0.510979        -2.526804         2.161876
 H         2.196715        -3.601735         2.243818
 H         2.274737        -1.719445         4.079189
 H         3.393714        -2.017141         2.971460
 H         2.730638         1.188475         1.390956
