19
Iteration:  4990
 C        -0.182605        -0.302994         0.217629
 C         1.283033        -0.463863         0.508618
 O         2.222335        -0.183836        -0.661715
 C         3.065436        -0.835500         0.409060
 C         1.930082        -1.843786         0.620488
 C         1.802169        -2.559182         1.987222
 C         2.485406        -1.743929         3.079423
 O         2.298891        -0.318552         2.851228
 C         2.425320         0.068638         1.533274
 H        -0.512907         0.522683         0.821552
 H        -0.279892        -0.167462        -0.913745
 H        -0.768148        -1.177654         0.527341
 H         4.102389        -1.028042         0.087738
 H         1.746451        -2.416234        -0.269477
 H         0.777907        -2.641701         2.315449
 H         2.359440        -3.469539         1.759341
 H         2.235452        -1.918323         4.104596
 H         3.637610        -1.859577         3.051098
 H         2.588675         1.153698         1.405006
