19
Iteration:  3895
 C        -0.281348        -0.371814         0.255465
 C         1.240882        -0.612678         0.406014
 O         2.270299        -0.145036        -0.654814
 C         3.040175        -0.872684         0.350462
 C         1.994995        -1.904813         0.590086
 C         1.732834        -2.445244         2.141603
 C         2.468921        -1.675991         3.134368
 O         2.512195        -0.244313         2.814656
 C         2.365995         0.070400         1.448453
 H        -0.650093        -1.069699         0.946169
 H        -0.549788         0.648241         0.498953
 H        -0.487624        -0.697088        -0.754170
 H         4.166575        -0.883952         0.239117
 H         1.810607        -2.647330        -0.197013
 H         0.649103        -2.362652         2.050426
 H         1.750294        -3.555660         2.321312
 H         1.976457        -1.626328         4.073437
 H         3.458637        -2.125155         3.149408
 H         2.551559         1.098564         1.380931
