19
Iteration:  3269
 C        -0.219572        -0.077401         0.431445
 C         1.273910        -0.545730         0.408298
 O         2.368201        -0.251781        -0.678881
 C         3.067511        -0.904083         0.392685
 C         1.893436        -1.899544         0.590512
 C         2.039019        -2.547835         1.935228
 C         2.484512        -1.676524         3.081778
 O         2.138396        -0.326543         2.873566
 C         2.282438         0.009284         1.410787
 H        -0.769540        -0.274188         1.361975
 H        -0.302943         1.011439         0.208542
 H        -0.791443        -0.682374        -0.381671
 H         4.151872        -1.136192         0.337704
 H         1.623830        -2.619173        -0.159175
 H         1.030253        -2.958047         2.210063
 H         2.900180        -3.301370         1.745481
 H         2.024932        -1.863658         4.138744
 H         3.656221        -1.544772         3.217811
 H         2.447910         1.109395         1.378274
