19
Iteration:  3715charge 0 multiplicity 1
 C        -0.134587        -0.369826         0.309386
 C         1.278950        -0.475587         0.477118
 O         2.260308        -0.241474        -0.669290
 C         3.120786        -0.774872         0.438462
 C         1.950476        -1.903933         0.693597
 C         1.648985        -2.500648         2.028011
 C         2.475424        -1.731262         3.024494
 O         2.411247        -0.298511         2.806416
 C         2.330837         0.122491         1.408596
 H        -0.751533        -0.744622         1.150440
 H        -0.486489         0.638469         0.202872
 H        -0.420258        -1.061439        -0.463953
 H         4.098613        -0.863116         0.060453
 H         1.791376        -2.550931        -0.177071
 H         0.578070        -2.247956         2.251349
 H         1.978064        -3.542226         1.905564
 H         2.106164        -1.914805         4.080491
 H         3.543811        -1.891974         3.021783
 H         2.706996         1.213448         1.403138
