19
Iteration:   529
 C        -0.166927        -0.114327         0.373035
 C         1.241989        -0.476650         0.407863
 O         2.274649        -0.250946        -0.682593
 C         3.021813        -0.988467         0.437016
 C         1.863396        -1.921798         0.633238
 C         1.909006        -2.634453         2.093125
 C         2.493011        -1.657151         3.090134
 O         2.274344        -0.219611         2.763532
 C         2.383415         0.058317         1.386771
 H        -0.784601        -0.542669         1.157422
 H        -0.197504         0.993526         0.350994
 H        -0.608179        -0.299110        -0.630455
 H         4.117781        -1.189081         0.207223
 H         1.794567        -2.624646        -0.224183
 H         0.919270        -2.981778         2.370296
 H         2.474441        -3.664368         2.032451
 H         2.104238        -1.862918         4.093218
 H         3.543692        -1.792103         3.076663
 H         2.834874         1.098139         1.398579
