19
Iteration:  2199charge 0 multiplicity 1
 C        -0.171863        -0.155389         0.321100
 C         1.267076        -0.507836         0.464845
 O         2.255868        -0.244621        -0.687189
 C         3.099454        -0.922988         0.402696
 C         1.993691        -1.872327         0.661172
 C         1.792751        -2.575497         1.951237
 C         2.551843        -1.728632         3.093517
 O         2.216412        -0.266456         2.818429
 C         2.364093         0.070127         1.465827
 H        -0.792561        -0.661976         1.081926
 H        -0.251461         0.921202         0.491222
 H        -0.422362        -0.560356        -0.668357
 H         4.077629        -1.084730         0.084732
 H         1.725406        -2.525374        -0.219496
 H         0.657204        -2.599181         2.257407
 H         2.129942        -3.547521         2.069561
 H         2.287117        -1.979164         4.138404
 H         3.626243        -1.814649         3.123183
 H         2.575708         1.129648         1.399536
