19
Iteration:  4860
 C        -0.221295         0.022232         0.378761
 C         1.243589        -0.610168         0.407665
 O         2.240024        -0.245092        -0.675122
 C         3.130598        -0.944096         0.290635
 C         2.058233        -1.978941         0.630954
 C         1.971214        -2.550635         1.990512
 C         2.480627        -1.681387         3.103510
 O         2.172424        -0.233908         2.821173
 C         2.300760        -0.036414         1.479422
 H        -0.938167        -0.607482         0.898356
 H        -0.267594         1.026051         0.919532
 H        -0.544907         0.046857        -0.662087
 H         4.202065        -1.093310         0.097260
 H         1.902869        -2.745094        -0.066997
 H         1.040144        -2.910619         2.267248
 H         2.551541        -3.469991         2.201297
 H         1.911565        -1.925116         4.055722
 H         3.445635        -1.573537         3.301803
 H         2.464865         1.056071         1.451469
