19
Iteration:  4157charge 0 multiplicity 1
 C        -0.148025        -0.017655         0.178508
 C         1.265255        -0.551549         0.468246
 O         2.172694        -0.320757        -0.561842
 C         2.999173        -0.966685         0.351738
 C         1.942684        -2.050337         0.667860
 C         2.027633        -2.639935         2.135737
 C         2.608163        -1.552788         3.054615
 O         2.124328        -0.245601         2.794055
 C         2.361739         0.066557         1.417330
 H        -0.997806        -0.256084         0.873097
 H        -0.082936         1.146300         0.334466
 H        -0.584510        -0.269207        -0.834020
 H         4.135360        -1.114681         0.119665
 H         1.785958        -2.646906        -0.278781
 H         0.993820        -2.807723         2.623901
 H         2.388983        -3.665889         2.022983
 H         2.496021        -1.663181         4.139570
 H         3.702823        -1.452364         2.788295
 H         2.655575         1.121661         1.395223
