19
Iteration:  2298charge 0 multiplicity 1
 C        -0.263137        -0.173292         0.244069
 C         1.283269        -0.476406         0.440654
 O         2.276444        -0.147078        -0.603032
 C         3.094876        -0.879309         0.442837
 C         1.945497        -1.972631         0.607665
 C         1.782879        -2.560222         2.030723
 C         2.561585        -1.719596         2.990383
 O         2.287500        -0.303484         2.834321
 C         2.378721         0.007289         1.489023
 H        -0.782460        -0.178565         1.227394
 H        -0.233203         0.793658        -0.302330
 H        -0.604664        -1.053013        -0.383167
 H         4.128412        -0.985434         0.271727
 H         1.748286        -2.777334        -0.174673
 H         0.751663        -2.406507         2.512306
 H         2.133743        -3.550270         1.984291
 H         2.123161        -1.815907         3.991565
 H         3.629846        -1.811707         3.049433
 H         2.613825         1.075041         1.364280
