19
Iteration:  1019
 C        -0.166025        -0.030711         0.333138
 C         1.259288        -0.581897         0.422469
 O         2.208133        -0.217129        -0.716320
 C         3.069632        -0.910048         0.501236
 C         2.019522        -1.958470         0.711828
 C         1.864219        -2.593328         2.097990
 C         2.521368        -1.658794         3.031737
 O         2.284565        -0.290833         2.741436
 C         2.292313         0.003721         1.396536
 H        -0.748928        -0.526793         1.168522
 H        -0.118210         1.069867         0.332199
 H        -0.836482        -0.253110        -0.540792
 H         4.118412        -1.034425         0.125583
 H         2.001899        -2.631993        -0.120958
 H         0.858702        -2.729188         2.368775
 H         2.252114        -3.659880         2.072237
 H         2.014713        -1.792891         4.013821
 H         3.543828        -1.800942         3.136989
 H         2.640386         1.028516         1.283105
