19
Iteration:  1173charge 0 multiplicity 1
 C        -0.217906        -0.105734         0.173453
 C         1.201274        -0.388313         0.419312
 O         2.236941        -0.318572        -0.626919
 C         3.019988        -0.966863         0.466314
 C         1.908977        -1.934971         0.642445
 C         1.910919        -2.625875         2.060835
 C         2.561854        -1.661759         3.065890
 O         2.271211        -0.250409         2.843244
 C         2.387725         0.091830         1.461107
 H        -0.767847        -0.793455         0.837286
 H        -0.612042         0.879595         0.546936
 H        -0.480164        -0.287489        -0.894766
 H         4.056669        -1.249695         0.197914
 H         1.754424        -2.502350        -0.267261
 H         0.903497        -2.887150         2.264900
 H         2.561016        -3.555504         2.070796
 H         2.498493        -1.830687         4.196564
 H         3.702320        -1.846503         2.840794
 H         2.907238         1.068425         1.460836
