19
Iteration:   553
 C        -0.232724        -0.201378         0.257643
 C         1.264836        -0.454244         0.544064
 O         2.322559        -0.235298        -0.695917
 C         3.111592        -1.022744         0.371764
 C         1.759225        -1.850930         0.687716
 C         1.869263        -2.504785         2.039270
 C         2.558630        -1.607886         3.014681
 O         2.297249        -0.277974         2.823396
 C         2.403641         0.006183         1.482067
 H        -0.695546        -0.846742         0.937606
 H        -0.635114         0.772955         0.325612
 H        -0.498545        -0.439901        -0.761564
 H         4.041298        -1.364207         0.016371
 H         1.329015        -2.546944        -0.053576
 H         0.873400        -2.662434         2.480122
 H         2.241751        -3.614739         2.029410
 H         2.197746        -1.958815         4.013939
 H         3.569244        -1.703939         2.964021
 H         2.785217         1.001174         1.427233
