19
Iteration:   897charge 0 multiplicity 1
 C        -0.069485        -0.123226         0.327941
 C         1.277708        -0.629105         0.445509
 O         2.224633        -0.221686        -0.690166
 C         3.041783        -0.809736         0.380668
 C         2.037699        -1.939759         0.648899
 C         1.741739        -2.550873         2.077676
 C         2.491102        -1.672721         3.114414
 O         2.340282        -0.333446         2.785331
 C         2.228628         0.049639         1.421976
 H        -0.434918         0.017921         1.419801
 H         0.099010         0.863804        -0.159956
 H        -0.861559        -0.682962        -0.205070
 H         4.142209        -0.760522         0.018685
 H         1.751819        -2.679245        -0.094165
 H         0.694068        -2.706965         2.066940
 H         2.208445        -3.641497         2.165591
 H         2.306347        -1.857919         4.169923
 H         3.696462        -1.910128         2.991071
 H         2.302609         1.134977         1.282411
