19
Iteration:  1519
 C        -0.094928        -0.012395         0.282594
 C         1.232431        -0.633798         0.360257
 O         2.198109        -0.236748        -0.707799
 C         3.068025        -0.820446         0.439473
 C         2.044796        -2.018319         0.669648
 C         1.845549        -2.606179         2.157171
 C         2.593346        -1.675369         3.104708
 O         2.249250        -0.296202         2.796329
 C         2.199387        -0.006670         1.402427
 H        -0.488433         0.163777         1.317597
 H        -0.128672         1.086480         0.035340
 H        -0.906735        -0.369527        -0.457412
 H         4.227803        -0.802257         0.318557
 H         1.993747        -2.779863        -0.217862
 H         0.787776        -2.598696         2.157159
 H         2.158402        -3.610301         2.143953
 H         2.456422        -1.904678         4.147992
 H         3.676034        -1.708261         2.915081
 H         2.332664         1.109250         1.409741
