19
Iteration:  4668
 C        -0.191617        -0.060460         0.490085
 C         1.271969        -0.538595         0.411791
 O         2.282805        -0.339519        -0.767517
 C         3.107752        -0.859365         0.388406
 C         2.024545        -1.867069         0.697495
 C         1.907512        -2.632983         2.026320
 C         2.519082        -1.653404         3.085590
 O         2.132648        -0.299561         2.738786
 C         2.332481         0.042995         1.445845
 H        -0.516608        -0.113057         1.571595
 H        -0.173453         0.978511         0.027074
 H        -0.842658        -0.813526        -0.078400
 H         4.150675        -0.895218         0.076551
 H         2.068305        -2.407154        -0.295355
 H         0.820432        -2.779667         2.003070
 H         2.294786        -3.638795         2.226669
 H         2.012699        -1.781939         4.037634
 H         3.534316        -1.828385         3.229126
 H         2.276535         1.115379         1.293309
