19
Iteration:  4372charge 0 multiplicity 1
 C        -0.149066        -0.092765         0.146802
 C         1.219459        -0.568972         0.497890
 O         2.246977        -0.316622        -0.652648
 C         2.999069        -0.895638         0.450869
 C         1.903349        -1.950496         0.671539
 C         1.897880        -2.517329         2.141148
 C         2.701025        -1.575548         3.013822
 O         2.232424        -0.269138         2.816500
 C         2.285613        -0.013941         1.459647
 H        -0.882203        -0.618474         0.802176
 H        -0.270026         0.943737         0.589181
 H        -0.271744        -0.286441        -0.936030
 H         4.030344        -1.196384         0.183364
 H         1.781812        -2.632888        -0.189870
 H         0.801582        -2.493288         2.333159
 H         2.156185        -3.692517         2.006407
 H         2.614334        -1.776961         4.121483
 H         3.737566        -1.766783         2.863146
 H         2.275241         1.055636         1.213357
