19
Iteration:  2516
 C        -0.157210        -0.183098         0.278982
 C         1.321430        -0.484412         0.450527
 O         2.099866        -0.202065        -0.694335
 C         3.193154        -0.810310         0.498024
 C         2.093079        -1.908559         0.628788
 C         1.746274        -2.556001         2.018747
 C         2.457494        -1.773032         3.042502
 O         2.251449        -0.349048         2.845774
 C         2.390427         0.060711         1.445130
 H        -0.673832        -0.325800         1.210909
 H        -0.340458         0.898782         0.098905
 H        -0.676341        -0.719693        -0.563280
 H         4.211262        -0.820511         0.180689
 H         1.974662        -2.715239        -0.140481
 H         0.660155        -2.538719         2.106839
 H         2.178697        -3.670780         1.997940
 H         2.206010        -1.793798         4.158060
 H         3.616524        -2.019830         2.938956
 H         2.617463         1.168049         1.421467
