19
Iteration:  1343
 C        -0.170266        -0.147190         0.174339
 C         1.263769        -0.472798         0.566594
 O         2.273090        -0.333579        -0.658288
 C         3.037218        -0.892810         0.423600
 C         1.894876        -1.877775         0.672932
 C         1.871319        -2.553307         2.018000
 C         2.625804        -1.657748         3.039008
 O         2.221140        -0.310616         2.839373
 C         2.354669         0.082248         1.460165
 H        -0.708477        -0.294272         1.115958
 H        -0.308132         0.913149        -0.029040
 H        -0.852289        -0.733549        -0.433023
 H         4.029491        -1.259784         0.132053
 H         1.614071        -2.522540        -0.205435
 H         0.827056        -2.681627         2.248257
 H         2.241408        -3.532655         1.998209
 H         2.347460        -1.881765         4.020967
 H         3.625858        -1.756552         2.985645
 H         2.682241         1.077093         1.201903
