19
Iteration:  4524
 C        -0.177372        -0.108956         0.307517
 C         1.242382        -0.512985         0.469083
 O         2.316172        -0.296803        -0.682858
 C         3.048245        -0.914268         0.371359
 C         1.854445        -1.979540         0.675674
 C         1.928168        -2.609645         2.094027
 C         2.636071        -1.600488         3.108912
 O         2.121413        -0.280638         2.745179
 C         2.382605         0.091356         1.441619
 H        -0.730079        -0.286496         1.272991
 H        -0.207472         0.981605        -0.065987
 H        -0.799555        -0.701362        -0.424454
 H         4.040745        -1.018407         0.082758
 H         1.629182        -2.565097        -0.239389
 H         0.942660        -2.932192         2.435827
 H         2.494433        -3.506177         1.985686
 H         2.321118        -1.870408         4.158148
 H         3.772160        -1.654118         2.948955
 H         2.491890         1.192617         1.413043
