19
Iteration:   952charge 0 multiplicity 1
 C        -0.103307        -0.283062         0.218854
 C         1.259069        -0.411832         0.448786
 O         2.291662        -0.161330        -0.637702
 C         2.993227        -0.915963         0.425293
 C         1.748613        -1.848021         0.674771
 C         1.729035        -2.596173         2.090165
 C         2.628676        -1.691823         3.057878
 O         2.338291        -0.269941         2.792741
 C         2.430233         0.016385         1.461020
 H        -0.611528        -0.996251         1.010698
 H        -0.503633         0.758724         0.138502
 H        -0.404217        -0.776417        -0.756966
 H         4.120555        -1.073256         0.149647
 H         1.446936        -2.478030        -0.163802
 H         0.796657        -2.730224         2.562892
 H         2.208020        -3.676785         2.015117
 H         2.225825        -1.806074         4.064378
 H         3.834162        -1.822215         2.959298
 H         2.517532         1.063791         1.205481
