19
Iteration:  3681
 C        -0.228053        -0.316301         0.346631
 C         1.277027        -0.558789         0.399730
 O         2.247357        -0.176709        -0.657911
 C         3.101403        -0.837445         0.395018
 C         2.024994        -1.928463         0.583629
 C         1.779980        -2.468217         1.998601
 C         2.436382        -1.670635         3.127282
 O         2.383076        -0.245180         2.840586
 C         2.359813         0.007551         1.421600
 H        -0.708768        -1.039854         1.015156
 H        -0.459965         0.712581         0.617856
 H        -0.536350        -0.262133        -0.713325
 H         4.085183        -0.975859         0.100244
 H         1.872498        -2.792559        -0.059395
 H         0.685651        -2.496631         2.250232
 H         1.898725        -3.542879         2.105299
 H         1.892056        -1.806144         4.053892
 H         3.448917        -2.099400         3.274611
 H         2.658285         1.115428         1.344582
