19
Iteration:  3683
 C        -0.229299        -0.319794         0.336689
 C         1.261316        -0.553956         0.389617
 O         2.250770        -0.178870        -0.678488
 C         3.117014        -0.832649         0.398786
 C         2.035265        -1.930119         0.580577
 C         1.764146        -2.453601         2.007437
 C         2.439639        -1.667415         3.142844
 O         2.389141        -0.266198         2.853162
 C         2.366282         0.018113         1.424526
 H        -0.766986        -1.009667         1.040730
 H        -0.488648         0.683253         0.689071
 H        -0.609806        -0.353919        -0.689555
 H         4.112268        -0.967658         0.020275
 H         1.884405        -2.752199        -0.100981
 H         0.589124        -2.492430         2.266374
 H         1.899988        -3.624202         2.057659
 H         1.869922        -1.792594         4.111635
 H         3.468660        -2.013134         3.222623
 H         2.693290         1.111271         1.403133
