19
Iteration:  3736charge 0 multiplicity 1
 C        -0.172743        -0.296918         0.227929
 C         1.210612        -0.506665         0.488072
 O         2.248685        -0.183576        -0.569756
 C         3.087010        -0.878170         0.476258
 C         1.945493        -1.952548         0.589276
 C         1.755813        -2.546688         2.023110
 C         2.531440        -1.668330         2.976843
 O         2.345528        -0.214439         2.829224
 C         2.401199         0.023840         1.457550
 H        -0.838282        -0.133167         1.081961
 H        -0.313950         0.696138        -0.140514
 H        -0.629045        -1.110631        -0.331926
 H         4.057925        -1.195055         0.273011
 H         1.701265        -2.701056        -0.174519
 H         0.740248        -2.537324         2.254773
 H         2.195081        -3.498996         2.069817
 H         2.293476        -1.764837         4.050033
 H         3.609544        -1.855035         2.712439
 H         2.508187         1.167264         1.373730
