19
Iteration:  2108
 C        -0.101085        -0.137820         0.232134
 C         1.284691        -0.544858         0.479343
 O         2.208030        -0.230142        -0.683595
 C         3.010334        -0.798913         0.502177
 C         1.951435        -1.973724         0.679467
 C         1.836214        -2.600464         2.059863
 C         2.502578        -1.693897         2.965685
 O         2.340981        -0.320130         2.818103
 C         2.311431         0.070770         1.479397
 H        -0.650981        -0.017509         1.243284
 H         0.006199         0.962992        -0.075426
 H        -0.695005        -0.825821        -0.424524
 H         4.112630        -0.843959         0.192127
 H         1.670125        -2.590641        -0.173109
 H         0.701953        -2.570153         2.272182
 H         2.344726        -3.492239         1.897508
 H         2.072724        -2.006226         3.902573
 H         3.545247        -2.034469         3.047187
 H         2.496128         1.155570         1.375523
