19
Iteration:   106charge 0 multiplicity 1
 C        -0.154009        -0.130076         0.287135
 C         1.285269        -0.527602         0.475756
 O         2.220282        -0.247474        -0.635259
 C         3.031981        -0.958434         0.406183
 C         1.954150        -1.907008         0.640139
 C         1.759191        -2.554774         2.074354
 C         2.494614        -1.663179         3.121349
 O         2.357949        -0.253573         2.733128
 C         2.427936         0.034587         1.393509
 H        -0.762943        -0.970751         0.667765
 H        -0.470512         0.766657         0.837601
 H        -0.569821        -0.013241        -0.785730
 H         4.053007        -1.279562         0.125075
 H         1.773727        -2.563513        -0.233597
 H         0.610410        -2.424125         2.356559
 H         1.989971        -3.638441         2.300639
 H         2.093328        -1.720381         4.191602
 H         3.617366        -1.980163         3.098150
 H         2.763275         1.108364         1.276587
