19
Iteration:  3523charge 0 multiplicity 1
 C        -0.175980        -0.366657         0.294858
 C         1.288728        -0.571280         0.507089
 O         2.193201        -0.159131        -0.628104
 C         3.101323        -0.833331         0.376621
 C         2.006054        -1.910680         0.618720
 C         1.765464        -2.497194         1.953387
 C         2.352087        -1.678349         3.076815
 O         2.408249        -0.274242         2.845818
 C         2.445500         0.070708         1.468074
 H        -0.732992         0.113841         1.173149
 H        -0.089488         0.443746        -0.493045
 H        -0.657528        -1.293925        -0.098245
 H         4.216389        -0.760791         0.099739
 H         1.708088        -2.551022        -0.229446
 H         0.573208        -2.543114         2.198868
 H         2.199557        -3.496813         1.963609
 H         1.759915        -1.818685         4.012138
 H         3.421691        -2.032631         3.159282
 H         2.520535         1.106832         1.371946
