19
Iteration:  3859charge 0 multiplicity 1
 C        -0.139245        -0.338220         0.308874
 C         1.302236        -0.510097         0.532090
 O         2.227588        -0.248983        -0.702538
 C         3.096963        -0.828833         0.391038
 C         1.967975        -1.954891         0.715416
 C         1.698984        -2.572469         2.014931
 C         2.409587        -1.669713         3.036895
 O         2.352244        -0.219093         2.796375
 C         2.428295         0.152160         1.411551
 H        -0.668401        -0.875930         1.127959
 H        -0.546278         0.648602         0.479211
 H        -0.651758        -0.749435        -0.547092
 H         4.139508        -0.928160         0.046918
 H         1.821679        -2.476178        -0.230150
 H         0.690361        -2.565714         2.270694
 H         2.183559        -3.450329         2.233635
 H         2.255534        -1.876176         4.158711
 H         3.527030        -1.972498         2.922007
 H         2.730327         1.192885         1.289359
