19
Iteration:  1271
 C        -0.159756        -0.301045         0.290189
 C         1.296672        -0.394732         0.467533
 O         2.241057        -0.195049        -0.662162
 C         3.065252        -0.962340         0.358312
 C         1.908649        -1.901404         0.687692
 C         1.768304        -2.604425         2.033374
 C         2.442051        -1.678460         3.054281
 O         2.296357        -0.253566         2.804078
 C         2.519056         0.120937         1.458646
 H        -0.712620        -0.301192         1.213391
 H        -0.606982         0.536040        -0.255336
 H        -0.680778        -1.151910        -0.161903
 H         4.163438        -1.123568         0.320752
 H         1.552807        -2.363395        -0.227738
 H         0.690472        -2.788638         2.289362
 H         2.274870        -3.656527         2.096238
 H         2.202339        -1.794892         4.148242
 H         3.576276        -1.901920         3.012736
 H         2.796181         1.177103         1.276421
