19
Iteration:  2210
 C        -0.070017        -0.097514         0.314804
 C         1.332589        -0.518776         0.405886
 O         2.216704        -0.249974        -0.666154
 C         3.053724        -0.825582         0.361741
 C         1.970742        -1.972114         0.588194
 C         1.821197        -2.564704         2.055713
 C         2.577822        -1.665890         3.139988
 O         2.238448        -0.335402         2.828800
 C         2.239086         0.004444         1.463847
 H        -0.581872        -0.611008         1.152627
 H        -0.151390         0.996928         0.436219
 H        -0.644373        -0.214127        -0.628539
 H         4.081268        -0.905854         0.302061
 H         1.908123        -2.677872        -0.296307
 H         0.652044        -2.546521         2.175875
 H         2.169539        -3.535412         2.020586
 H         2.068923        -1.822744         4.094915
 H         3.605596        -1.904290         3.023057
 H         2.442081         1.053686         1.339220
