19
Iteration:     5
 C        -0.098416        -0.102708         0.274126
 C         1.292535        -0.506158         0.453973
 O         2.228255        -0.274662        -0.654784
 C         3.056431        -0.951084         0.394845
 C         1.882298        -1.922675         0.670666
 C         1.784338        -2.547272         2.056502
 C         2.507802        -1.676999         3.032724
 O         2.320115        -0.243154         2.823558
 C         2.371969         0.044291         1.405914
 H        -0.684813        -0.393970         1.216954
 H        -0.214984         1.007144         0.155407
 H        -0.563047        -0.686494        -0.512523
 H         4.086585        -1.331434         0.255336
 H         1.478754        -2.685051        -0.058255
 H         0.684622        -2.658563         2.475790
 H         2.225263        -3.533639         2.136353
 H         2.239917        -1.839114         4.066035
 H         3.670631        -1.937537         2.924784
 H         2.674788         1.086784         1.356178
