19
Iteration:  3201charge 0 multiplicity 1
 C        -0.216038        -0.235857         0.159252
 C         1.237464        -0.525424         0.403381
 O         2.287509        -0.133547        -0.694016
 C         3.023683        -0.798546         0.504946
 C         1.929818        -1.952235         0.611495
 C         1.776285        -2.518123         2.052573
 C         2.633487        -1.749218         3.045841
 O         2.370619        -0.313708         2.915510
 C         2.261051         0.021090         1.522166
 H        -0.703434        -0.678385         1.051159
 H        -0.335883         0.873824         0.153823
 H        -0.541382        -0.868447        -0.734583
 H         4.073092        -0.826990         0.282414
 H         1.851183        -2.651639        -0.236689
 H         0.662669        -2.405203         2.150290
 H         2.131120        -3.524995         2.072990
 H         2.492442        -2.128621         4.158130
 H         3.692581        -1.906953         2.743231
 H         2.334892         1.165967         1.408485
