19
Iteration:  3810
 C        -0.099793         0.025144         0.305611
 C         1.249930        -0.581875         0.411736
 O         2.246328        -0.326777        -0.661596
 C         3.041379        -0.944369         0.400123
 C         1.941862        -1.970384         0.689513
 C         2.020318        -2.640747         2.014890
 C         2.582353        -1.622303         3.011034
 O         2.098714        -0.243422         2.844940
 C         2.237074         0.049364         1.478126
 H        -0.729818         0.231855         1.173867
 H        -0.117325         1.002620        -0.248567
 H        -0.766128        -0.701875        -0.259888
 H         4.130944        -0.972733         0.203198
 H         1.849711        -2.639225        -0.193757
 H         1.015172        -2.971705         2.403068
 H         2.801431        -3.463677         2.075090
 H         2.362996        -1.775199         4.037077
 H         3.756791        -1.716614         2.977439
 H         2.422256         1.135079         1.351700
