19
Iteration:  4066
 C        -0.180524        -0.401413         0.278536
 C         1.280816        -0.573434         0.449021
 O         2.168598        -0.140949        -0.655913
 C         3.084668        -0.923434         0.389274
 C         1.958906        -1.956745         0.539283
 C         1.736408        -2.497460         2.019861
 C         2.421053        -1.629690         3.113604
 O         2.502720        -0.149375         2.876968
 C         2.395644         0.032653         1.441198
 H        -0.744383        -0.759566         1.182728
 H        -0.317715         0.695334         0.254157
 H        -0.441239        -1.061113        -0.582681
 H         4.135188        -0.826936         0.071809
 H         1.742737        -2.812390        -0.097986
 H         0.582981        -2.307629         2.226222
 H         1.934832        -3.578182         2.177045
 H         1.837868        -1.645261         4.099261
 H         3.460710        -1.922835         3.364161
 H         2.646596         1.054578         1.182274
