19
Iteration:    24charge 0 multiplicity 1
 C        -0.081853        -0.192696         0.271644
 C         1.373914        -0.412134         0.476960
 O         2.262339        -0.239645        -0.695038
 C         2.998434        -1.140515         0.378952
 C         1.702855        -1.906119         0.667007
 C         1.789935        -2.570679         2.041476
 C         2.580881        -1.603259         3.040167
 O         2.246085        -0.189795         2.887080
 C         2.443026         0.066466         1.475661
 H        -0.718902        -0.919695         0.881597
 H        -0.431194         0.840655         0.506319
 H        -0.269577        -0.398279        -0.744196
 H         3.987541        -1.332629         0.021736
 H         1.442016        -2.526947        -0.184757
 H         0.790481        -2.956605         2.425955
 H         2.396743        -3.433136         1.889389
 H         2.464460        -1.878223         4.042758
 H         3.677706        -1.676505         2.781509
 H         2.770573         1.054545         1.274292
