19
Iteration:  2528charge 0 multiplicity 1
 C        -0.089789        -0.106959         0.356455
 C         1.302700        -0.625432         0.467459
 O         2.164342        -0.201361        -0.643625
 C         3.092379        -0.763598         0.378424
 C         2.114089        -1.988042         0.676920
 C         1.759060        -2.579798         1.987283
 C         2.441535        -1.682518         3.013032
 O         2.260994        -0.309251         2.784096
 C         2.301620         0.038246         1.494216
 H        -0.735653        -0.433706         1.175031
 H         0.152955         0.970708         0.242345
 H        -0.459875        -0.515968        -0.620406
 H         4.165241        -0.787302         0.278375
 H         2.034401        -2.612673        -0.268741
 H         0.701849        -2.692627         2.089678
 H         2.140242        -3.722360         2.096067
 H         2.031451        -2.106299         4.002247
 H         3.614010        -1.826828         2.995192
 H         2.420883         1.182980         1.462176
