19
Iteration:  2578charge 0 multiplicity 1
 C        -0.171340        -0.147873         0.291886
 C         1.289591        -0.355398         0.513147
 O         2.278386        -0.217895        -0.634069
 C         3.069955        -0.929657         0.386234
 C         1.849459        -1.893915         0.633970
 C         1.962153        -2.663487         2.016986
 C         2.495817        -1.722515         3.109471
 O         2.136250        -0.303143         2.755226
 C         2.432213         0.107620         1.452281
 H        -0.599139        -0.877565         1.012849
 H        -0.425578         0.899441         0.442906
 H        -0.418682        -0.615736        -0.676424
 H         4.134019        -1.232503         0.161243
 H         1.534648        -2.545521        -0.172467
 H         0.920092        -3.141937         2.350510
 H         2.677369        -3.416962         1.804943
 H         2.047357        -2.037449         4.040688
 H         3.543122        -1.765413         3.026275
 H         2.747625         1.129157         1.408324
