19
Iteration:  3148charge 0 multiplicity 1
 C        -0.131633        -0.306825         0.291111
 C         1.328952        -0.501212         0.430931
 O         2.182139        -0.179899        -0.657141
 C         3.110420        -0.828133         0.377177
 C         1.943865        -1.855337         0.611281
 C         1.786675        -2.545152         1.985866
 C         2.475463        -1.680596         3.070927
 O         2.281583        -0.311958         2.936108
 C         2.382567         0.025311         1.472715
 H        -0.621418        -0.541099         1.180967
 H        -0.315829         0.751745         0.127918
 H        -0.350385        -0.817050        -0.678226
 H         4.034315        -0.926738        -0.132598
 H         1.777116        -2.464620        -0.250398
 H         0.716293        -2.675137         2.046005
 H         2.295566        -3.585500         2.021360
 H         2.036814        -1.957768         4.096484
 H         3.694276        -1.974885         2.969782
 H         2.490746         1.156712         1.466447
