19
Iteration:   319
 C        -0.218787        -0.101290         0.307080
 C         1.267824        -0.480773         0.459506
 O         2.217981        -0.280756        -0.659980
 C         3.092548        -0.976130         0.412984
 C         1.932688        -1.921940         0.633244
 C         1.858079        -2.536897         2.003699
 C         2.518235        -1.634046         3.136546
 O         2.278001        -0.249574         2.793963
 C         2.418611        -0.020989         1.416748
 H        -0.633945        -0.755510         1.114047
 H        -0.433940         0.931926         0.561442
 H        -0.519959        -0.241125        -0.697461
 H         4.129238        -1.126502         0.078014
 H         1.706029        -2.576423        -0.196000
 H         0.805614        -2.560135         2.318587
 H         2.035693        -3.733202         1.950067
 H         2.105000        -1.673738         4.114534
 H         3.609140        -1.899369         3.245094
 H         2.765614         0.973556         1.114073
