19
Iteration:  3499
 C        -0.184382        -0.273152         0.395189
 C         1.262654        -0.566874         0.439099
 O         2.272574        -0.176973        -0.611740
 C         3.099649        -0.880778         0.391751
 C         2.035908        -1.949569         0.551243
 C         1.784712        -2.598513         1.908802
 C         2.350466        -1.638482         3.108899
 O         2.416177        -0.190003         2.840640
 C         2.332891         0.046281         1.432873
 H        -0.516646        -0.095168         1.468473
 H        -0.412187         0.621993        -0.232233
 H        -0.625166        -1.199782        -0.010390
 H         4.232271        -0.892121         0.320402
 H         1.855338        -2.509473        -0.371561
 H         0.592945        -2.816806         2.072526
 H         2.241629        -3.559789         1.965117
 H         1.616178        -1.713132         4.022490
 H         3.438465        -1.969773         3.290574
 H         2.317637         1.132957         1.261855
