19
Iteration:  4677charge 0 multiplicity 1
 C        -0.123589        -0.035122         0.432600
 C         1.270057        -0.542824         0.435005
 O         2.214755        -0.330402        -0.806067
 C         3.141450        -0.869682         0.392114
 C         2.017683        -1.981563         0.612597
 C         1.979764        -2.680473         1.992340
 C         2.506792        -1.672256         3.088874
 O         2.072958        -0.249974         2.826490
 C         2.321923         0.128808         1.476471
 H        -0.342381         0.184928         1.458909
 H        -0.197036         0.989346        -0.002235
 H        -0.922017        -0.685890         0.088756
 H         4.157965        -0.937697         0.241494
 H         1.843632        -2.760787        -0.139802
 H         0.874435        -2.845878         2.382510
 H         2.370498        -3.673849         2.043176
 H         2.106900        -1.764341         4.114812
 H         3.582170        -1.804939         3.185363
 H         2.482214         1.207141         1.314722
