19
Iteration:   374
 C        -0.256960        -0.049791         0.232575
 C         1.250495        -0.557268         0.463690
 O         2.206005        -0.325748        -0.642538
 C         3.058876        -0.914742         0.514250
 C         1.961456        -1.957034         0.655946
 C         1.814431        -2.499409         2.060195
 C         2.540405        -1.642039         3.009669
 O         2.334781        -0.307025         2.814792
 C         2.396392         0.065592         1.405238
 H        -0.838749        -0.399087         1.111828
 H        -0.195645         1.029821         0.334738
 H        -0.598344        -0.354155        -0.741705
 H         4.109454        -1.116276         0.179069
 H         1.877861        -2.647530        -0.185509
 H         0.743360        -2.638398         2.335144
 H         2.361784        -3.540880         2.059369
 H         2.199290        -1.851377         4.014188
 H         3.725895        -2.051266         2.935861
 H         2.712865         1.136122         1.288503
