19
Iteration:  4271charge 0 multiplicity 1
 C        -0.230328        -0.311100         0.408471
 C         1.330660        -0.607487         0.470274
 O         2.275478        -0.303383        -0.743020
 C         3.124915        -0.794790         0.460212
 C         1.960370        -1.864079         0.690480
 C         1.740105        -2.503916         2.022797
 C         2.419105        -1.646459         3.064457
 O         2.376904        -0.249660         2.704671
 C         2.385615         0.118224         1.446689
 H        -0.485462        -0.272750         1.528531
 H        -0.386765         0.595088        -0.218995
 H        -0.815651        -1.205028         0.020108
 H         4.148957        -1.000638         0.398412
 H         1.884364        -2.498800        -0.183839
 H         0.650675        -2.502535         2.228032
 H         1.822473        -3.698708         1.917023
 H         1.940773        -1.866346         4.019739
 H         3.470301        -1.802395         3.091332
 H         2.509648         1.207870         1.230925
