19
Iteration:  4156charge 0 multiplicity 1
 C        -0.142639        -0.016999         0.182962
 C         1.250267        -0.559575         0.473784
 O         2.178271        -0.311292        -0.563005
 C         3.002447        -0.969977         0.355539
 C         1.938783        -2.055167         0.664125
 C         2.029286        -2.644346         2.131755
 C         2.606601        -1.550312         3.056540
 O         2.119174        -0.241293         2.799698
 C         2.374835         0.070294         1.412047
 H        -0.967195        -0.298348         0.856572
 H        -0.110693         1.136917         0.327863
 H        -0.575036        -0.249040        -0.828871
 H         4.122295        -1.130580         0.099838
 H         1.794469        -2.650012        -0.275886
 H         1.015964        -2.820507         2.636617
 H         2.357586        -3.643062         2.042623
 H         2.481275        -1.655440         4.165475
 H         3.694142        -1.453742         2.707147
 H         2.638495         1.100235         1.349548
