19
Iteration:  2598
 C        -0.094656        -0.159900         0.246289
 C         1.287047        -0.485323         0.534432
 O         2.196818        -0.225908        -0.660145
 C         3.063643        -0.848178         0.378437
 C         1.918598        -1.885067         0.679665
 C         1.880246        -2.627090         1.991849
 C         2.529760        -1.668248         3.032646
 O         2.182372        -0.341776         2.885696
 C         2.394533         0.048839         1.469496
 H        -0.852304        -0.570413         0.998385
 H        -0.081947         0.944354         0.095985
 H        -0.294168        -0.689309        -0.701227
 H         4.121143        -0.958234        -0.017119
 H         1.699058        -2.515299        -0.178124
 H         0.829510        -2.782684         2.101703
 H         2.340006        -3.530170         1.830180
 H         2.109890        -1.817117         4.020720
 H         3.638783        -1.796058         3.090778
 H         2.601944         1.086126         1.348446
