19
Iteration:   100charge 0 multiplicity 1
 C        -0.168741        -0.106411         0.305018
 C         1.287349        -0.555452         0.493638
 O         2.185585        -0.283393        -0.638175
 C         3.056303        -0.935274         0.396371
 C         2.018029        -1.939446         0.627864
 C         1.720522        -2.551858         2.078214
 C         2.517188        -1.662066         3.100633
 O         2.375133        -0.244124         2.753017
 C         2.380532         0.057985         1.413494
 H        -0.966601        -0.843203         0.510556
 H        -0.322716         0.854025         0.813035
 H        -0.284163        -0.013887        -0.751025
 H         4.052903        -1.241294         0.114203
 H         1.841654        -2.587979        -0.219028
 H         0.704658        -2.418184         2.159941
 H         1.842890        -3.639318         2.205738
 H         2.082737        -1.730933         4.080562
 H         3.574982        -1.904139         3.200603
 H         2.705880         1.063491         1.250357
