19
Iteration:  3728
 C        -0.192969        -0.318722         0.259917
 C         1.313513        -0.541352         0.527357
 O         2.226440        -0.201624        -0.560546
 C         3.073105        -0.901826         0.473293
 C         1.938304        -1.883584         0.626781
 C         1.712627        -2.514741         1.982768
 C         2.549094        -1.644878         2.983726
 O         2.363612        -0.261638         2.761168
 C         2.387072         0.086247         1.454346
 H        -0.732580        -0.434108         1.244364
 H        -0.377512         0.631378        -0.247540
 H        -0.477632        -1.049795        -0.485949
 H         4.186169        -0.971172         0.440071
 H         1.780034        -2.458278        -0.290868
 H         0.560011        -2.618315         2.236940
 H         1.958563        -3.640949         2.193454
 H         2.189849        -1.802278         4.066825
 H         3.555684        -2.008492         2.856431
 H         2.486674         1.184464         1.265165
