19
Iteration:  1418
 C        -0.068170        -0.148601         0.297272
 C         1.280634        -0.636261         0.367926
 O         2.163503        -0.349373        -0.692925
 C         3.028043        -0.756337         0.391182
 C         2.057692        -1.923994         0.657522
 C         1.724283        -2.539504         2.062682
 C         2.464063        -1.674156         3.104118
 O         2.378341        -0.263802         2.854039
 C         2.322084         0.073515         1.476234
 H        -0.787141        -0.529992         1.055633
 H        -0.060728         0.925721         0.514345
 H        -0.700053        -0.152634        -0.616790
 H         4.052426        -0.846355         0.061659
 H         2.178190        -2.692205        -0.113054
 H         0.669095        -2.635984         1.995879
 H         2.020944        -3.560231         2.043956
 H         2.188635        -1.925020         4.143818
 H         3.654472        -1.879320         2.917897
 H         2.346396         1.155409         1.321795
