19
Iteration:  1480
 C        -0.207131        -0.274018         0.280263
 C         1.290715        -0.435332         0.516298
 O         2.305989        -0.268260        -0.706930
 C         3.075528        -0.932246         0.326991
 C         1.878223        -1.884485         0.657829
 C         1.794892        -2.589979         1.956338
 C         2.450698        -1.646283         3.038508
 O         2.310502        -0.208924         2.922220
 C         2.397431         0.048222         1.492605
 H        -0.525855        -0.247571         1.335400
 H        -0.289206         0.657779        -0.256623
 H        -0.556960        -1.159200        -0.200025
 H         4.128505        -0.979588         0.140768
 H         1.480610        -2.433835        -0.162661
 H         0.726458        -2.773837         2.284784
 H         2.407616        -3.564132         2.119428
 H         2.361695        -1.784262         4.157333
 H         3.526926        -1.815975         2.859036
 H         2.646057         1.097641         1.237577
