19
Iteration:  2995charge 0 multiplicity 1
 C        -0.124236        -0.298612         0.131144
 C         1.274068        -0.493001         0.445981
 O         2.197297        -0.100395        -0.563829
 C         3.050888        -0.804798         0.391258
 C         1.945434        -1.870916         0.645306
 C         1.742761        -2.532872         2.102988
 C         2.598414        -1.772114         3.109492
 O         2.354176        -0.371621         2.817755
 C         2.302718         0.035605         1.420611
 H        -0.691823        -0.769284         0.916623
 H        -0.242238         0.786712         0.084544
 H        -0.472376        -0.881892        -0.763113
 H         4.089755        -0.876826         0.121043
 H         1.781011        -2.440316        -0.248643
 H         0.672350        -2.393905         2.414330
 H         1.975178        -3.714462         1.881764
 H         2.359078        -1.812886         4.209875
 H         3.641667        -1.862444         3.018471
 H         2.518195         1.149456         1.529608
