19
Iteration:  4466
 C        -0.170907        -0.224170         0.439385
 C         1.297381        -0.606171         0.488912
 O         2.190418        -0.149122        -0.748445
 C         3.086575        -0.944120         0.399523
 C         2.067362        -1.972283         0.655677
 C         1.873812        -2.528248         1.999864
 C         2.344711        -1.646337         3.165149
 O         2.310566        -0.190709         2.742643
 C         2.386194        -0.017832         1.355992
 H        -0.365706         0.226249         1.426983
 H        -0.216837         0.638531        -0.227025
 H        -0.689696        -1.103964         0.026506
 H         4.133557        -0.853132         0.080874
 H         1.775934        -2.668709        -0.150581
 H         0.740621        -2.644224         2.126650
 H         2.288822        -3.484988         2.144317
 H         1.750331        -1.895439         4.066488
 H         3.432327        -1.851390         3.417910
 H         2.449894         1.135425         1.304117
