19
Iteration:  2416
 C        -0.141038         0.001952         0.266632
 C         1.264639        -0.532485         0.400444
 O         2.223241        -0.258951        -0.694061
 C         3.045495        -0.796472         0.447511
 C         2.018190        -1.989117         0.676548
 C         1.872148        -2.665940         2.074229
 C         2.540155        -1.777931         3.082860
 O         2.254529        -0.313517         2.800916
 C         2.287186         0.087084         1.415248
 H        -0.747324        -0.392565         1.096741
 H        -0.176078         1.087175         0.364219
 H        -0.831686        -0.332939        -0.513182
 H         4.092521        -0.741275         0.334639
 H         1.831975        -2.658977        -0.179033
 H         0.887819        -2.616841         2.260601
 H         2.347413        -3.718725         2.083718
 H         2.093028        -2.045773         4.051614
 H         3.669288        -1.693781         3.107225
 H         2.481140         1.132104         1.501959
