19
Iteration:  3129
 C        -0.212601        -0.147480         0.338731
 C         1.235658        -0.539815         0.461046
 O         2.258014        -0.169652        -0.644810
 C         3.077850        -0.822256         0.383552
 C         2.061403        -1.959755         0.582140
 C         1.890155        -2.590288         1.995250
 C         2.454630        -1.716777         3.121975
 O         2.247841        -0.307751         2.772654
 C         2.328139         0.057582         1.455184
 H        -0.643353        -0.460347         1.302430
 H        -0.231120         0.925420         0.266947
 H        -0.686586        -0.712207        -0.469160
 H         4.171719        -0.959230         0.405311
 H         1.888177        -2.678181        -0.212105
 H         0.866196        -2.632788         2.273509
 H         2.453123        -3.590952         1.967486
 H         1.868228        -1.866426         3.973050
 H         3.585613        -2.055064         3.276793
 H         2.544476         1.085903         1.296054
