19
Iteration:  1204charge 0 multiplicity 1
 C        -0.060300        -0.032477         0.301352
 C         1.244263        -0.641176         0.481859
 O         2.171408        -0.275755        -0.661062
 C         3.055098        -0.795667         0.400782
 C         2.009540        -1.981369         0.606912
 C         1.866836        -2.540111         2.118976
 C         2.552606        -1.644725         3.110901
 O         2.260222        -0.314153         2.757347
 C         2.223219        -0.001374         1.385228
 H        -0.836886        -0.603521         0.794705
 H         0.206975         0.940243         0.621424
 H        -0.249280         0.108048        -0.751812
 H         4.169953        -0.929204         0.233367
 H         1.902251        -2.771444        -0.145831
 H         0.791653        -2.714040         2.208342
 H         2.100412        -3.651621         2.301627
 H         2.340525        -1.700301         4.149051
 H         3.529663        -1.876566         2.979218
 H         2.371775         1.064572         1.379311
