19
Iteration:  4978
 C        -0.209906        -0.297648         0.175902
 C         1.283373        -0.480914         0.459479
 O         2.216138        -0.211312        -0.603877
 C         3.080520        -0.802787         0.360713
 C         1.996102        -1.873933         0.653635
 C         1.745547        -2.571297         1.991887
 C         2.540124        -1.785059         3.040446
 O         2.372828        -0.267328         2.942162
 C         2.349808         0.152251         1.485502
 H        -0.715508         0.462472         0.733861
 H        -0.469105         0.037358        -0.861925
 H        -0.681872        -1.259565         0.366330
 H         4.164958        -0.947247         0.112536
 H         1.750110        -2.529877        -0.179132
 H         0.614321        -2.716954         2.045415
 H         1.967438        -3.631916         2.175501
 H         2.168903        -2.055346         3.950208
 H         3.631521        -2.179872         2.924305
 H         2.658268         1.188867         1.502314
