19
Iteration:   805
 C        -0.127727        -0.083216         0.300829
 C         1.269428        -0.635972         0.432271
 O         2.160235        -0.300257        -0.692854
 C         3.116807        -0.828206         0.450352
 C         1.972615        -1.986658         0.670408
 C         1.772486        -2.433275         2.025697
 C         2.596670        -1.697019         3.086079
 O         2.334811        -0.308764         2.828073
 C         2.298727         0.037192         1.418413
 H        -0.986650        -0.462523         0.943828
 H        -0.020898         1.081464         0.258774
 H        -0.505244        -0.311026        -0.782730
 H         4.172782        -0.816684         0.200359
 H         1.791340        -2.637382        -0.253055
 H         0.707313        -2.422198         2.348991
 H         2.073859        -3.493565         2.101603
 H         2.188423        -1.934971         4.125013
 H         3.712651        -2.064589         3.057452
 H         2.094552         1.114896         1.412847
