19
Iteration:  3583charge 0 multiplicity 1
 C        -0.144179        -0.082531         0.231546
 C         1.274099        -0.534135         0.472743
 O         2.256991        -0.279425        -0.559511
 C         3.021558        -0.952273         0.492868
 C         1.973796        -1.999173         0.587069
 C         1.888828        -2.624026         2.003120
 C         2.616826        -1.611576         2.925172
 O         2.203522        -0.221853         2.852066
 C         2.253197         0.074285         1.514573
 H        -0.794415        -0.177750         1.075146
 H        -0.122322         0.901744        -0.213490
 H        -0.559166        -0.674901        -0.639422
 H         4.050205        -0.977490         0.280388
 H         1.821410        -2.662852        -0.265874
 H         0.727551        -2.754977         2.269248
 H         2.312416        -3.751303         2.146758
 H         2.584908        -1.983179         3.950933
 H         3.656522        -1.590940         2.673097
 H         2.276491         1.233537         1.509178
