19
Iteration:  4360
 C        -0.147318        -0.064356         0.181956
 C         1.232419        -0.541794         0.443905
 O         2.207904        -0.374584        -0.603794
 C         3.036306        -0.930254         0.469496
 C         1.890130        -1.978359         0.716519
 C         1.904978        -2.539088         2.055803
 C         2.707230        -1.653384         3.020654
 O         2.211775        -0.258807         2.793685
 C         2.264898         0.111656         1.423636
 H        -0.961109        -0.722788         0.628444
 H        -0.258490         1.062303         0.308682
 H        -0.411674        -0.068843        -0.925741
 H         4.095966        -0.883492         0.430513
 H         1.666659        -2.747599        -0.036276
 H         0.949843        -2.712059         2.587823
 H         2.543474        -3.571725         2.164418
 H         2.478447        -1.854387         4.108398
 H         3.730669        -1.558635         2.747732
 H         2.714175         1.121241         1.390169
