19
Iteration:  3565
 C        -0.184039        -0.219384         0.206175
 C         1.242008        -0.572652         0.464542
 O         2.296794        -0.238155        -0.640660
 C         3.085216        -0.808174         0.461947
 C         1.881241        -1.873565         0.665913
 C         1.807617        -2.513265         2.004809
 C         2.610920        -1.707243         3.024572
 O         2.271483        -0.313342         2.873886
 C         2.300384         0.039764         1.440482
 H        -0.672300         0.010728         1.188592
 H        -0.290531         0.693696        -0.390062
 H        -0.802739        -0.853401        -0.395243
 H         4.183343        -1.021458         0.457143
 H         1.814437        -2.527463        -0.187207
 H         0.851938        -2.777431         2.237415
 H         2.258152        -3.434215         1.994107
 H         2.272169        -1.865833         4.111359
 H         3.741185        -1.819104         2.929677
 H         2.564907         1.060859         1.289221
