19
Iteration:  3830charge 0 multiplicity 1
 C        -0.154671        -0.140270         0.302506
 C         1.257872        -0.593608         0.434671
 O         2.285098        -0.218905        -0.665013
 C         3.056979        -0.927248         0.444192
 C         1.903605        -1.965530         0.594362
 C         1.938754        -2.496734         1.996859
 C         2.577204        -1.596453         3.171084
 O         2.173861        -0.287012         2.781596
 C         2.307543        -0.004236         1.399915
 H        -0.616111        -0.202774         1.290412
 H        -0.182343         0.963649         0.294466
 H        -0.888793        -0.702180        -0.294695
 H         4.148322        -1.108711         0.183566
 H         1.740188        -2.609259        -0.284958
 H         0.850306        -2.683395         2.462959
 H         2.458705        -3.568968         2.123598
 H         2.202845        -1.871495         4.127601
 H         3.631364        -1.637208         3.062171
 H         2.596132         0.992117         1.225908
