19
Iteration:  3832
 C        -0.148186        -0.149109         0.318314
 C         1.257343        -0.592927         0.421841
 O         2.288263        -0.211139        -0.661627
 C         3.069514        -0.938383         0.429445
 C         1.903912        -1.955502         0.601451
 C         1.923319        -2.508325         2.004124
 C         2.560849        -1.603500         3.165321
 O         2.181902        -0.280342         2.769284
 C         2.306727        -0.008705         1.411075
 H        -0.713061        -0.283876         1.283511
 H        -0.282258         0.973429         0.276923
 H        -0.870646        -0.716495        -0.314117
 H         4.132445        -1.062951         0.170297
 H         1.767354        -2.575699        -0.304504
 H         0.859717        -2.614133         2.433500
 H         2.447592        -3.527389         2.152757
 H         2.259079        -1.796362         4.185476
 H         3.704880        -1.722287         3.110993
 H         2.622170         1.054161         1.242755
