19
Iteration:  4872
 C        -0.248239        -0.013000         0.347863
 C         1.240148        -0.560609         0.394562
 O         2.291681        -0.247195        -0.651694
 C         3.047225        -0.898523         0.376470
 C         1.997934        -1.993057         0.609297
 C         2.002645        -2.612656         2.053582
 C         2.498132        -1.623432         3.134491
 O         2.150605        -0.288915         2.830452
 C         2.373398         0.005716         1.405717
 H        -0.852554        -0.607727         0.983975
 H        -0.147204         1.046536         0.698386
 H        -0.755172         0.088743        -0.615413
 H         4.043126        -1.034798         0.020019
 H         1.853712        -2.730407        -0.147561
 H         0.960287        -2.863890         2.140377
 H         2.686648        -3.456047         1.873058
 H         2.078374        -1.870835         4.197029
 H         3.473249        -1.924387         3.175121
 H         2.579344         1.064017         1.136553
