19
Iteration:  3192
 C        -0.252141        -0.289092         0.179693
 C         1.292499        -0.548022         0.379736
 O         2.272710        -0.119990        -0.626832
 C         3.082898        -0.842642         0.523881
 C         1.917842        -1.893540         0.578961
 C         1.712065        -2.474098         2.065743
 C         2.635530        -1.753117         2.990909
 O         2.397023        -0.331588         2.858725
 C         2.266076         0.053752         1.512750
 H        -0.729085        -0.608423         1.064606
 H        -0.660657         0.713211         0.065092
 H        -0.632045        -0.762701        -0.759439
 H         4.141426        -0.917963         0.602752
 H         1.924765        -2.619770        -0.197339
 H         0.723677        -2.644178         2.467844
 H         2.138591        -3.552134         2.009984
 H         2.380215        -1.936780         4.066421
 H         3.584826        -1.838577         2.823919
 H         2.493900         1.146822         1.550428
