19
Iteration:  4045charge 0 multiplicity 1
 C        -0.308400        -0.318689         0.287527
 C         1.259361        -0.528467         0.437157
 O         2.268854        -0.256235        -0.650257
 C         3.071929        -0.833814         0.357656
 C         2.001584        -1.874830         0.670415
 C         1.764755        -2.498583         2.028224
 C         2.426039        -1.636513         3.108950
 O         2.437899        -0.272705         2.774558
 C         2.410346         0.059569         1.446628
 H        -0.702302        -0.401825         1.342629
 H        -0.519789         0.732578        -0.081590
 H        -0.650926        -1.219576        -0.310908
 H         4.155308        -1.124640         0.231624
 H         1.834580        -2.614679        -0.180207
 H         0.701970        -2.694463         2.373123
 H         2.413967        -3.353924         1.942714
 H         1.954468        -1.678810         4.161312
 H         3.386119        -1.932112         3.325783
 H         2.551989         1.119437         1.347822
