19
Iteration:   889
 C        -0.143901        -0.105863         0.358013
 C         1.293859        -0.564914         0.429029
 O         2.244622        -0.235239        -0.671832
 C         3.055998        -0.819437         0.301906
 C         2.035516        -1.892008         0.667814
 C         1.758897        -2.616515         2.108325
 C         2.500070        -1.681425         3.128856
 O         2.286923        -0.301872         2.756298
 C         2.300538        -0.034290         1.411282
 H        -0.444783         0.221385         1.303924
 H        -0.128253         0.878638        -0.027700
 H        -0.792268        -0.742090        -0.203770
 H         4.129045        -0.929775         0.280460
 H         1.995217        -2.563197        -0.178939
 H         0.634123        -2.779287         2.119172
 H         2.361357        -3.517730         2.118804
 H         2.309683        -1.782301         4.209893
 H         3.495892        -1.880011         2.939611
 H         2.256883         1.046565         1.404901
