19
Iteration:  1325
 C        -0.198482        -0.076551         0.278317
 C         1.233723        -0.601615         0.377962
 O         2.234495        -0.250265        -0.645104
 C         3.099886        -0.803063         0.436566
 C         1.986902        -1.993678         0.701979
 C         1.771461        -2.585178         2.087086
 C         2.538799        -1.692009         3.048218
 O         2.346559        -0.287051         2.793669
 C         2.298068         0.055532         1.445519
 H        -0.850759         0.102724         1.152517
 H        -0.165181         0.814764        -0.365865
 H        -0.694543        -0.739802        -0.475108
 H         4.241016        -0.776588         0.305366
 H         2.049987        -2.689118        -0.163178
 H         0.688607        -2.752667         2.447660
 H         2.154934        -3.684285         2.196167
 H         2.330083        -1.766835         4.148722
 H         3.713789        -1.936040         2.734340
 H         2.404601         1.170127         1.320737
