19
Iteration:   865charge 0 multiplicity 1
 C        -0.178433        -0.149256         0.368863
 C         1.348895        -0.454304         0.480334
 O         2.257328        -0.303556        -0.658671
 C         2.993008        -0.996787         0.457430
 C         1.908452        -1.931888         0.636049
 C         1.913444        -2.586843         1.944293
 C         2.527321        -1.632327         3.051192
 O         2.188539        -0.275590         2.789084
 C         2.407874         0.107987         1.420494
 H        -0.488694         0.116695         1.376113
 H        -0.307751         0.836848        -0.015576
 H        -0.732176        -0.895254        -0.176039
 H         4.115076        -1.007675         0.199165
 H         1.418973        -2.452900        -0.168428
 H         0.864530        -2.743633         2.054739
 H         2.554436        -3.549886         2.044359
 H         1.987353        -1.989481         3.902097
 H         3.588081        -1.676376         3.253116
 H         2.752082         1.134685         1.322407
