19
Iteration:  2913
 C        -0.172261        -0.096370         0.364965
 C         1.310929        -0.537394         0.375442
 O         2.232943        -0.202375        -0.715267
 C         3.117013        -0.806604         0.367644
 C         2.111220        -1.971392         0.629690
 C         1.881625        -2.581802         2.051096
 C         2.518910        -1.716384         3.113063
 O         2.072240        -0.346381         2.866169
 C         2.373639         0.034658         1.446825
 H        -0.584510        -0.212208         1.407330
 H        -0.468161         0.939366         0.271197
 H        -0.806467        -0.394222        -0.437388
 H         4.141357        -0.898833        -0.129376
 H         1.828353        -2.663685        -0.268261
 H         0.821119        -2.724475         2.297346
 H         2.261317        -3.600692         1.850906
 H         2.195129        -2.173959         4.057119
 H         3.547548        -1.712677         3.112249
 H         2.421684         1.111752         1.423945
