19
Iteration:  3476charge 0 multiplicity 1
 C        -0.176187        -0.205901         0.415613
 C         1.280613        -0.512203         0.423168
 O         2.253204        -0.208734        -0.724585
 C         3.115815        -0.840681         0.363147
 C         2.019314        -1.873429         0.649215
 C         1.875606        -2.581797         2.051498
 C         2.399891        -1.684301         3.112367
 O         2.206978        -0.343320         2.734440
 C         2.401876         0.086623         1.446214
 H        -0.444058        -0.295760         1.501189
 H        -0.310588         0.850397         0.123159
 H        -0.717921        -0.958059        -0.212597
 H         4.185713        -1.121039         0.206725
 H         1.926161        -2.583418        -0.196448
 H         0.695607        -2.919343         2.137059
 H         2.429729        -3.501773         2.141682
 H         1.631807        -1.827137         4.008739
 H         3.533194        -1.903160         3.280627
 H         2.638342         1.224157         1.493294
