19
Iteration:   635charge 0 multiplicity 1
 C        -0.191018        -0.190288         0.255996
 C         1.289576        -0.432225         0.503415
 O         2.245750        -0.217307        -0.654269
 C         3.061610        -0.954127         0.398874
 C         1.881200        -1.965893         0.645488
 C         1.783764        -2.575445         2.072997
 C         2.534934        -1.683815         3.065248
 O         2.303555        -0.263706         2.821017
 C         2.437117         0.087510         1.414865
 H        -0.770211        -0.140635         1.211695
 H        -0.303092         0.840017        -0.114121
 H        -0.620246        -0.990831        -0.339212
 H         4.029397        -1.216473        -0.123309
 H         1.571018        -2.591745        -0.207982
 H         0.726038        -2.825735         2.316780
 H         2.420949        -3.414004         2.054474
 H         2.186242        -1.885514         4.048208
 H         3.550448        -1.881879         3.043477
 H         2.789656         1.166523         1.346306
