19
Iteration:  4459
 C        -0.176299        -0.266281         0.426196
 C         1.363183        -0.557949         0.429900
 O         2.166995        -0.162327        -0.716177
 C         3.107868        -0.927355         0.430833
 C         2.041159        -1.975103         0.594656
 C         1.838274        -2.484950         2.013567
 C         2.357204        -1.651324         3.146741
 O         2.339543        -0.250011         2.744404
 C         2.399414         0.046623         1.408146
 H        -0.646933        -0.004990         1.419037
 H        -0.286098         0.624453        -0.299111
 H        -0.900615        -1.078621         0.148363
 H         4.086000        -1.031134         0.048163
 H         1.765367        -2.801836        -0.083537
 H         0.806133        -2.695104         2.202919
 H         2.240921        -3.516226         2.150936
 H         1.725917        -1.574413         4.085555
 H         3.417635        -1.823212         3.522793
 H         2.458491         1.086821         1.129928
