19
Iteration:  4512
 C        -0.173710        -0.110962         0.370143
 C         1.311076        -0.500848         0.452584
 O         2.230675        -0.353263        -0.705237
 C         3.031883        -0.881564         0.446166
 C         1.957433        -1.867393         0.663496
 C         1.950461        -2.640299         2.020281
 C         2.539927        -1.636752         3.066789
 O         2.121226        -0.283625         2.789960
 C         2.362532         0.066128         1.352669
 H        -0.484326         0.085862         1.441771
 H        -0.253369         0.997026        -0.006792
 H        -0.658026        -0.880680        -0.306019
 H         4.018090        -1.186338         0.455506
 H         1.753666        -2.655727        -0.090295
 H         0.946119        -2.908522         2.448258
 H         2.534202        -3.489925         1.997544
 H         2.249006        -1.636360         4.173125
 H         3.700260        -1.613292         3.174854
 H         2.734310         1.122810         1.068717
