19
Iteration:  4490
 C        -0.184834        -0.120222         0.444781
 C         1.348130        -0.580565         0.442868
 O         2.217686        -0.342590        -0.702014
 C         3.118051        -0.870625         0.390035
 C         2.017262        -2.009240         0.613282
 C         1.886412        -2.602823         1.998295
 C         2.404475        -1.617664         3.090039
 O         2.205386        -0.225799         2.750651
 C         2.377894         0.116909         1.458416
 H        -0.304135         0.308541         1.471182
 H        -0.214487         0.860754        -0.160826
 H        -0.849452        -0.904275         0.000316
 H         4.036803        -0.885604        -0.103346
 H         1.704347        -2.680934        -0.221444
 H         0.900725        -2.992997         2.322920
 H         2.581211        -3.364247         2.100429
 H         1.932529        -1.750793         4.125810
 H         3.560393        -1.730675         3.248898
 H         2.207797         1.228784         1.363983
