19
Iteration:  1044
 C        -0.091222        -0.153310         0.384787
 C         1.367208        -0.442199         0.540043
 O         2.242387        -0.296787        -0.716875
 C         3.077485        -0.996608         0.333550
 C         1.856018        -1.929939         0.562750
 C         1.898648        -2.507508         1.999415
 C         2.465015        -1.669443         3.086124
 O         2.182121        -0.239473         2.886361
 C         2.404645         0.070162         1.429934
 H        -0.580799        -0.427375         1.284244
 H        -0.440831         0.775844        -0.136544
 H        -0.540046        -0.952578        -0.234419
 H         4.076252        -1.105124        -0.021407
 H         1.386081        -2.455200        -0.290971
 H         0.863830        -2.954054         2.317466
 H         2.497809        -3.400759         1.981254
 H         2.036719        -1.934218         4.133429
 H         3.616375        -1.814905         3.069260
 H         2.493556         1.186975         1.332221
