19
Iteration:  3679
 C        -0.222715        -0.310182         0.354120
 C         1.293480        -0.564383         0.412532
 O         2.243667        -0.174529        -0.637087
 C         3.078640        -0.844416         0.389866
 C         2.011513        -1.927680         0.590841
 C         1.792043        -2.483208         1.992687
 C         2.433025        -1.674987         3.108988
 O         2.377255        -0.225527         2.825729
 C         2.355846         0.003985         1.421879
 H        -0.662100        -1.069092         0.974226
 H        -0.429066         0.751385         0.573531
 H        -0.469014        -0.206026        -0.732063
 H         4.137149        -0.986064         0.174396
 H         1.864848        -2.820841        -0.057948
 H         0.785632        -2.477434         2.211035
 H         1.939109        -3.479225         2.152398
 H         1.908033        -1.822044         4.012104
 H         3.438239        -2.159915         3.327311
 H         2.590123         1.075714         1.278240
