19
Iteration:   796charge 0 multiplicity 1
 C        -0.139537        -0.150744         0.221247
 C         1.273486        -0.635157         0.455979
 O         2.179738        -0.318620        -0.692587
 C         3.080957        -0.772682         0.358654
 C         1.980823        -1.931645         0.642076
 C         1.708749        -2.510807         2.086589
 C         2.555385        -1.697077         3.014882
 O         2.384260        -0.273324         2.904245
 C         2.292074         0.046756         1.468929
 H        -0.866676        -0.372756         1.039392
 H         0.085221         0.881362         0.571623
 H        -0.430444        -0.215526        -0.837672
 H         4.191218        -0.779903         0.383325
 H         1.705972        -2.778405        -0.032964
 H         0.698941        -2.395851         2.275889
 H         2.119386        -3.582955         2.137914
 H         2.389565        -1.873598         4.084280
 H         3.551789        -1.969768         2.791928
 H         2.441178         1.158127         1.402957
