19
Iteration:  2031charge 0 multiplicity 1
 C        -0.169901        -0.038067         0.353905
 C         1.256399        -0.555101         0.449923
 O         2.213463        -0.328140        -0.703184
 C         3.073380        -0.789866         0.450135
 C         2.080706        -2.000633         0.621771
 C         1.849403        -2.607816         2.060808
 C         2.476451        -1.675847         3.014152
 O         2.243778        -0.274151         2.815939
 C         2.340851         0.064541         1.443621
 H        -0.743459        -0.322588         1.323880
 H        -0.011071         1.090085         0.411764
 H        -0.678479        -0.326485        -0.632865
 H         4.191936        -0.908013         0.223369
 H         2.051747        -2.623173        -0.259613
 H         0.605521        -2.690672         2.002305
 H         2.091295        -3.646115         2.132064
 H         2.222628        -2.095217         3.944269
 H         3.559220        -1.975197         2.970289
 H         2.440197         1.153610         1.531860
