19
Iteration:  3147charge 0 multiplicity 1
 C        -0.129031        -0.302449         0.290022
 C         1.335012        -0.510321         0.427875
 O         2.181098        -0.180066        -0.653863
 C         3.105222        -0.829833         0.378966
 C         1.943313        -1.852401         0.614612
 C         1.798787        -2.541215         1.984329
 C         2.479217        -1.688754         3.075458
 O         2.279458        -0.311204         2.930506
 C         2.382177         0.023661         1.467427
 H        -0.614440        -0.521206         1.211316
 H        -0.340856         0.769571         0.135480
 H        -0.396432        -0.790857        -0.688029
 H         4.026069        -0.913617        -0.144472
 H         1.792549        -2.481734        -0.254850
 H         0.705946        -2.703807         2.015279
 H         2.260436        -3.567922         2.021815
 H         2.029799        -1.960640         4.119899
 H         3.628893        -1.929023         3.001934
 H         2.496662         1.167210         1.481946
