19
Iteration:  4921
 C        -0.230494        -0.212351         0.193689
 C         1.235770        -0.514648         0.498966
 O         2.246376        -0.207831        -0.689956
 C         3.076067        -0.832567         0.427755
 C         1.963199        -1.901889         0.561674
 C         1.743257        -2.598764         2.066084
 C         2.632448        -1.675076         3.046712
 O         2.260133        -0.266158         2.869600
 C         2.402429         0.030356         1.564183
 H        -0.807299        -0.241518         1.137801
 H        -0.287241         0.641948        -0.436241
 H        -0.626746        -1.056818        -0.381512
 H         4.180593        -1.024541         0.345299
 H         1.766235        -2.500715        -0.388415
 H         0.603113        -2.533417         2.154927
 H         2.233466        -3.571423         2.201620
 H         2.423557        -2.006430         4.017521
 H         3.754502        -1.928435         2.907011
 H         2.715551         1.058243         1.447642
