19
Iteration:  2887charge 0 multiplicity 1
 C        -0.101595        -0.178338         0.339248
 C         1.298267        -0.532509         0.521895
 O         2.281827        -0.221552        -0.614731
 C         3.048513        -0.836762         0.476898
 C         1.925487        -1.921327         0.606029
 C         1.906913        -2.626794         1.929765
 C         2.516250        -1.680141         3.050355
 O         2.173356        -0.284515         2.761452
 C         2.326041         0.064331         1.486158
 H        -0.671063        -0.012975         1.256370
 H        -0.312182         0.789609        -0.169370
 H        -0.628837        -0.781852        -0.475530
 H         4.064235        -1.004064         0.213210
 H         1.616583        -2.476924        -0.272247
 H         0.894326        -2.997601         2.151275
 H         2.425331        -3.496511         1.716591
 H         2.238479        -2.003337         4.056362
 H         3.578952        -1.790403         3.034418
 H         2.406372         1.198781         1.406035
