19
Iteration:  1426charge 0 multiplicity 1
 C        -0.168880        -0.200135         0.317695
 C         1.272714        -0.619669         0.407982
 O         2.227130        -0.266338        -0.714823
 C         3.084949        -0.758388         0.386670
 C         2.030525        -1.984151         0.691010
 C         1.694450        -2.541292         2.034358
 C         2.479228        -1.716187         3.107010
 O         2.372694        -0.267515         2.823535
 C         2.354242         0.104398         1.444521
 H        -0.745586        -0.375052         1.251516
 H        -0.152569         0.912043         0.477790
 H        -0.450428        -0.374776        -0.702980
 H         4.035328        -0.937664        -0.076317
 H         2.115695        -2.637507        -0.135025
 H         0.579590        -2.516951         2.263460
 H         2.148536        -3.620054         2.220853
 H         2.155005        -1.706740         4.207476
 H         3.458303        -2.017847         3.053697
 H         2.229686         1.186629         1.211426
