19
Iteration:  3869
 C        -0.163118        -0.398652         0.358524
 C         1.309767        -0.562811         0.464753
 O         2.184079        -0.315037        -0.651309
 C         3.098648        -0.807085         0.421237
 C         1.942540        -1.821211         0.624178
 C         1.661075        -2.520942         2.023377
 C         2.440359        -1.660071         3.038604
 O         2.422256        -0.213381         2.794079
 C         2.447224         0.124696         1.455045
 H        -0.650014        -1.133836         1.059485
 H        -0.424184         0.658917         0.344093
 H        -0.252606        -0.674238        -0.709009
 H         4.159288        -0.842838         0.243528
 H         1.775309        -2.462622        -0.259915
 H         0.623628        -2.583369         2.014294
 H         1.927482        -3.527357         2.032348
 H         2.043619        -1.607353         4.129641
 H         3.558235        -2.068118         2.976839
 H         2.637331         1.240269         1.441996
