19
Iteration:  2489
 C        -0.184817        -0.325381         0.248082
 C         1.257100        -0.418619         0.497050
 O         2.415114        -0.146969        -0.620612
 C         3.035291        -0.867132         0.409815
 C         1.830652        -1.871292         0.584946
 C         1.799050        -2.522540         1.983327
 C         2.518508        -1.741695         2.992443
 O         2.333594        -0.308854         2.851636
 C         2.326187         0.030826         1.517586
 H        -0.708262        -0.294101         1.250510
 H        -0.545969         0.628537        -0.129568
 H        -0.687553        -1.110715        -0.272135
 H         4.153663        -1.097414         0.268956
 H         1.482691        -2.696939         0.014916
 H         0.637589        -2.692851         2.360824
 H         2.309807        -3.390418         1.800425
 H         2.124481        -1.764383         3.950440
 H         3.604092        -1.957871         3.049044
 H         2.608945         1.054520         1.395881
