19
Iteration:  1209charge 0 multiplicity 1
 C        -0.095172         0.000648         0.299126
 C         1.283319        -0.634853         0.431396
 O         2.150545        -0.278523        -0.642933
 C         3.030046        -0.818579         0.388487
 C         2.073357        -2.017706         0.591031
 C         1.821170        -2.565306         2.105947
 C         2.560064        -1.630383         3.103422
 O         2.255668        -0.295218         2.784901
 C         2.261143        -0.005451         1.414060
 H        -0.786848        -0.634815         0.897920
 H         0.057743         1.071247         0.698584
 H        -0.413630         0.086425        -0.777132
 H         4.078233        -0.943404         0.285150
 H         2.119074        -2.878759        -0.098480
 H         0.709660        -2.619813         2.186299
 H         2.160317        -3.573413         2.259258
 H         2.240033        -1.701974         4.225751
 H         3.735133        -1.892427         2.986557
 H         2.322366         1.110308         1.244753
