19
Iteration:   988charge 0 multiplicity 1
 C        -0.174142        -0.089603         0.239542
 C         1.236434        -0.637771         0.491986
 O         2.264022        -0.305133        -0.672856
 C         3.044217        -0.825355         0.399531
 C         1.950568        -1.948865         0.655297
 C         1.774428        -2.565172         2.034917
 C         2.572562        -1.643152         3.008222
 O         2.332662        -0.222810         2.874618
 C         2.315541         0.000972         1.479302
 H        -0.906726        -0.607034         0.865251
 H        -0.159329         0.965838         0.566321
 H        -0.397505        -0.190142        -0.841794
 H         4.049734        -0.875380        -0.013858
 H         1.782862        -2.586717        -0.207815
 H         0.683317        -2.600988         2.450933
 H         2.172691        -3.594715         2.059491
 H         2.362120        -1.893052         4.118715
 H         3.749011        -1.966537         2.901886
 H         2.416358         1.089785         1.354396
