19
Iteration:  3133
 C        -0.167685        -0.175249         0.303764
 C         1.249935        -0.543158         0.457496
 O         2.228758        -0.169479        -0.641845
 C         3.074342        -0.828657         0.361132
 C         2.045311        -1.946850         0.601064
 C         1.884368        -2.558686         1.966767
 C         2.459605        -1.743620         3.131672
 O         2.252120        -0.300275         2.785532
 C         2.350129         0.068612         1.483810
 H        -0.662163        -0.601387         1.262620
 H        -0.248286         0.947541         0.251666
 H        -0.795495        -0.767061        -0.387531
 H         4.185761        -0.966080         0.366715
 H         1.863877        -2.711947        -0.221105
 H         0.789755        -2.617086         2.317993
 H         2.344289        -3.494569         1.902488
 H         1.979391        -1.954276         4.123470
 H         3.426141        -1.930939         3.264732
 H         2.605529         1.135592         1.331165
