19
Iteration:   234charge 0 multiplicity 1
 C        -0.125480        -0.211925         0.278371
 C         1.323275        -0.410969         0.495138
 O         2.324381        -0.227009        -0.596139
 C         3.037249        -0.956504         0.389615
 C         1.670518        -1.908096         0.587243
 C         1.808012        -2.636553         2.067687
 C         2.520153        -1.666909         3.029525
 O         2.289138        -0.247205         2.793100
 C         2.437325         0.057678         1.485706
 H        -0.738322         0.267513         1.097252
 H        -0.262820         0.478307        -0.588032
 H        -0.704011        -1.160872         0.011540
 H         4.140300        -1.044393        -0.008234
 H         1.291440        -2.591827        -0.290490
 H         0.924131        -2.950410         2.594265
 H         2.546308        -3.441139         1.957911
 H         2.365532        -1.735410         4.141071
 H         3.780790        -1.802182         2.866876
 H         2.720543         1.158577         1.255789
