19
Iteration:   312charge 0 multiplicity 1
 C        -0.155636        -0.057734         0.324713
 C         1.262379        -0.538316         0.443370
 O         2.209478        -0.300471        -0.673433
 C         3.083788        -0.895264         0.445094
 C         1.965904        -1.990772         0.625280
 C         1.784817        -2.588116         2.025526
 C         2.526630        -1.620168         3.094687
 O         2.330897        -0.287315         2.790459
 C         2.377604         0.055121         1.407151
 H        -0.756417        -0.671493         1.003694
 H        -0.332680         0.984906         0.620995
 H        -0.719197        -0.415411        -0.604219
 H         4.168000        -1.051977         0.130600
 H         1.777771        -2.566255        -0.357537
 H         0.723628        -2.500349         2.315735
 H         2.131597        -3.587156         2.213580
 H         1.972211        -1.718948         4.065592
 H         3.566324        -1.832150         3.268393
 H         2.615127         1.171640         1.262219
