19
Iteration:  3941
 C        -0.228029        -0.157746         0.194884
 C         1.273643        -0.501126         0.579180
 O         2.217419        -0.393426        -0.660248
 C         3.016547        -0.869465         0.464088
 C         1.923446        -1.915217         0.704538
 C         1.892540        -2.596024         1.975620
 C         2.610647        -1.635011         3.059028
 O         2.268464        -0.224109         2.806613
 C         2.338403         0.099215         1.439054
 H        -0.962656        -0.484069         0.900476
 H        -0.227239         0.920554        -0.042213
 H        -0.325540        -0.611817        -0.803356
 H         4.046535        -1.060077         0.151612
 H         1.872313        -2.432330        -0.276026
 H         0.895989        -2.876486         2.408090
 H         2.306875        -3.672631         2.115951
 H         2.321016        -1.759741         4.054749
 H         3.689690        -1.638858         2.920252
 H         2.612272         1.187008         1.421212
