19
Iteration:  2696
 C        -0.173121        -0.172935         0.269188
 C         1.311796        -0.475088         0.465696
 O         2.285142        -0.154207        -0.606782
 C         3.113536        -0.905009         0.364640
 C         1.862643        -1.902555         0.647676
 C         1.864339        -2.595232         1.991373
 C         2.484599        -1.703774         3.080964
 O         2.272674        -0.314479         2.834731
 C         2.298083         0.024335         1.441643
 H        -0.704421        -0.364035         1.310091
 H        -0.379274         0.842638        -0.120368
 H        -0.455896        -0.951656        -0.494163
 H         4.265231        -1.011528         0.252409
 H         1.679550        -2.526846        -0.248324
 H         0.829814        -2.851216         2.199668
 H         2.446087        -3.572287         1.873810
 H         2.075988        -1.897433         4.115707
 H         3.601699        -1.690997         3.177768
 H         2.507058         1.077768         1.338668
