19
Iteration:  4520
 C        -0.196961        -0.111806         0.319829
 C         1.258964        -0.508986         0.468451
 O         2.309842        -0.316695        -0.684748
 C         3.013167        -0.888408         0.389540
 C         1.880997        -1.968884         0.660048
 C         1.916789        -2.626282         2.065655
 C         2.635623        -1.614583         3.127756
 O         2.109808        -0.281928         2.744671
 C         2.409985         0.096001         1.428274
 H        -0.602656        -0.152897         1.349585
 H        -0.191201         0.898874        -0.026897
 H        -0.714695        -0.695765        -0.436711
 H         4.117587        -1.075131         0.115743
 H         1.602641        -2.547064        -0.227783
 H         0.907339        -2.903858         2.526456
 H         2.601589        -3.498279         1.951281
 H         2.323325        -1.784254         4.147423
 H         3.681667        -1.627928         3.019560
 H         2.466268         1.224540         1.289936
