19
Iteration:  3078charge 0 multiplicity 1
 C        -0.141090        -0.096397         0.362524
 C         1.325327        -0.501078         0.512230
 O         2.202041        -0.232799        -0.698216
 C         3.109567        -0.910582         0.365328
 C         1.982529        -1.922604         0.604196
 C         1.998394        -2.607018         1.931611
 C         2.482168        -1.646296         3.123021
 O         2.058711        -0.336305         2.797911
 C         2.365119         0.056272         1.503899
 H        -0.648702        -0.224957         1.395062
 H        -0.295183         0.969367         0.023668
 H        -0.464821        -0.750860        -0.449235
 H         4.212682        -1.067249         0.196566
 H         1.713475        -2.611927        -0.268477
 H         0.944858        -2.763444         2.367213
 H         2.503223        -3.509056         1.873088
 H         2.037112        -2.038747         4.097619
 H         3.662740        -1.680481         3.032806
 H         2.624406         1.103687         1.485097
