19
Iteration:  3846charge 0 multiplicity 1
 C        -0.223627        -0.228877         0.370423
 C         1.303481        -0.483615         0.428946
 O         2.275639        -0.216554        -0.650325
 C         3.084898        -0.896903         0.345512
 C         1.994348        -1.941124         0.635885
 C         1.792844        -2.577715         2.124886
 C         2.504276        -1.628675         3.039363
 O         2.259739        -0.244350         2.792479
 C         2.364980         0.033443         1.403487
 H        -0.637829        -0.726827         1.301168
 H        -0.405294         0.858457         0.192320
 H        -0.417632        -0.734471        -0.576606
 H         4.120727        -1.083241         0.178633
 H         1.784105        -2.774498        -0.049228
 H         0.769293        -2.752573         2.241624
 H         2.141630        -3.549056         2.053293
 H         2.007258        -1.764702         4.064826
 H         3.683835        -1.801499         3.026658
 H         2.468975         1.178387         1.293917
