19
Iteration:  1570
 C        -0.171533        -0.190893         0.200612
 C         1.275702        -0.365714         0.511455
 O         2.277500        -0.201727        -0.668630
 C         3.038179        -0.951374         0.396825
 C         1.769320        -1.938447         0.732342
 C         1.901882        -2.644337         2.129464
 C         2.551819        -1.642664         3.023544
 O         2.215825        -0.304253         2.767924
 C         2.452438         0.076188         1.436614
 H        -0.665216        -0.576624         1.051072
 H        -0.584151         0.815150         0.213005
 H        -0.431273        -0.747888        -0.690319
 H         4.037029        -1.143490         0.039668
 H         1.653752        -2.476911        -0.166622
 H         0.891529        -3.050143         2.458695
 H         2.662763        -3.488546         1.919635
 H         2.188669        -1.870624         4.032077
 H         3.802514        -1.831566         3.093452
 H         2.667407         1.146955         1.474885
