19
Iteration:   961charge 0 multiplicity 1
 C        -0.163882        -0.243584         0.171576
 C         1.292113        -0.411543         0.462825
 O         2.234761        -0.211228        -0.615232
 C         3.004092        -0.939561         0.456859
 C         1.818377        -1.863208         0.639800
 C         1.748840        -2.589058         2.042576
 C         2.663756        -1.656135         3.132875
 O         2.306368        -0.286725         2.793760
 C         2.411980         0.019458         1.439379
 H        -0.644364        -0.864078         1.002781
 H        -0.614075         0.729983         0.431685
 H        -0.274441        -0.686072        -0.840112
 H         4.069607        -1.087122         0.098099
 H         1.481994        -2.400995        -0.282179
 H         0.789367        -2.540413         2.430653
 H         2.102146        -3.645307         1.824361
 H         2.496782        -1.678415         4.179658
 H         3.665406        -1.875471         2.959115
 H         2.898603         1.011255         1.376256
