19
Iteration:  2503
 C        -0.203320        -0.243171         0.284751
 C         1.294172        -0.470962         0.432492
 O         2.280735        -0.187274        -0.687086
 C         3.070147        -0.851930         0.437357
 C         1.921992        -1.841222         0.629231
 C         1.784371        -2.565190         1.954000
 C         2.531054        -1.739836         3.129299
 O         2.285028        -0.345765         2.849465
 C         2.392984         0.100456         1.469278
 H        -0.668377        -0.454105         1.226640
 H        -0.433819         0.718015        -0.143469
 H        -0.520452        -1.071513        -0.372709
 H         4.114625        -1.017110         0.229885
 H         1.862196        -2.284995        -0.361801
 H         0.650514        -2.543631         2.283216
 H         2.004981        -3.695815         2.053918
 H         2.108740        -2.126042         4.080752
 H         3.685297        -2.022462         3.104078
 H         2.584160         1.162688         1.449138
