19
Iteration:   888charge 0 multiplicity 1
 C        -0.150475        -0.101261         0.360860
 C         1.287999        -0.557366         0.427131
 O         2.244680        -0.236295        -0.672603
 C         3.065456        -0.819869         0.301438
 C         2.028842        -1.898360         0.668036
 C         1.763914        -2.616722         2.107315
 C         2.494309        -1.683177         3.127023
 O         2.278494        -0.297096         2.757294
 C         2.312993        -0.035305         1.410463
 H        -0.476992         0.214780         1.332276
 H        -0.161787         0.878302        -0.051139
 H        -0.792708        -0.751505        -0.199886
 H         4.166963        -0.960516         0.295823
 H         2.024522        -2.555506        -0.183046
 H         0.670247        -2.780323         2.161787
 H         2.383796        -3.560368         2.104471
 H         2.290492        -1.762078         4.197401
 H         3.540472        -1.904051         2.926382
 H         2.280199         1.045923         1.413985
