19
Iteration:  3836
 C        -0.158233        -0.160393         0.354951
 C         1.261209        -0.577057         0.401056
 O         2.290582        -0.204572        -0.652734
 C         3.082713        -0.950461         0.396368
 C         1.917871        -1.938120         0.610160
 C         1.889776        -2.539876         2.042122
 C         2.545240        -1.615647         3.129746
 O         2.197585        -0.265130         2.759488
 C         2.314751        -0.006623         1.426198
 H        -0.770974        -0.446890         1.262017
 H        -0.400743         0.899815         0.180232
 H        -0.755039        -0.701268        -0.401081
 H         4.133398        -1.006165         0.172319
 H         1.805954        -2.575432        -0.279024
 H         0.889735        -2.545752         2.321037
 H         2.377939        -3.436665         2.138644
 H         2.301815        -1.684322         4.255049
 H         3.701530        -1.828248         3.196528
 H         2.598025         1.085657         1.298614
