19
Iteration:  4329charge 0 multiplicity 1
 C        -0.128533        -0.052999         0.212029
 C         1.222869        -0.516754         0.480455
 O         2.257371        -0.350422        -0.666530
 C         2.984705        -0.955752         0.347403
 C         1.901698        -1.945032         0.713790
 C         1.969140        -2.594077         2.057681
 C         2.619869        -1.622231         3.160192
 O         2.195195        -0.264316         2.748074
 C         2.282459         0.076475         1.460051
 H        -0.908113        -0.449104         0.841955
 H        -0.387678         1.006971         0.364955
 H        -0.420540        -0.336322        -0.794932
 H         4.116362        -1.014082         0.298893
 H         1.586424        -2.644463        -0.089654
 H         0.966443        -2.850892         2.452123
 H         2.750513        -3.483554         1.994349
 H         2.386276        -1.843634         4.254784
 H         3.710218        -1.512026         3.099117
 H         2.660206         1.071280         1.276853
