19
Iteration:  1588charge 0 multiplicity 1
 C        -0.206534        -0.233635         0.236988
 C         1.269626        -0.503690         0.442696
 O         2.280168        -0.214989        -0.676654
 C         3.039021        -0.891124         0.325548
 C         1.893707        -1.855598         0.645105
 C         1.842752        -2.551072         2.039740
 C         2.563560        -1.704332         3.171830
 O         2.313057        -0.263807         2.859416
 C         2.377298         0.041022         1.443227
 H        -0.883517        -0.634562         1.041861
 H        -0.542828         0.815102         0.112516
 H        -0.526681        -0.550811        -0.751602
 H         4.078385        -1.109205         0.134104
 H         1.469055        -2.636071        -0.017726
 H         0.801191        -2.717991         2.326159
 H         2.255409        -3.544802         1.989261
 H         2.190236        -1.819463         4.237085
 H         3.530875        -2.031468         3.088362
 H         2.722437         1.064880         1.438734
