19
Iteration:  2891
 C        -0.086891        -0.171600         0.346234
 C         1.285180        -0.513539         0.502857
 O         2.268136        -0.222742        -0.641966
 C         3.055649        -0.842389         0.440561
 C         1.938317        -1.926196         0.617247
 C         1.909018        -2.612807         1.937652
 C         2.512726        -1.701549         3.057884
 O         2.154244        -0.294508         2.784825
 C         2.316788         0.066496         1.488305
 H        -0.656710        -0.013396         1.301376
 H        -0.321405         0.792103        -0.101622
 H        -0.569622        -0.739506        -0.446420
 H         4.170323        -0.995800         0.244898
 H         1.686126        -2.539993        -0.342739
 H         0.850601        -2.934342         2.048702
 H         2.519048        -3.602691         1.903456
 H         2.238840        -1.887689         4.118667
 H         3.610108        -1.750449         2.985432
 H         2.475560         1.155382         1.500342
