19
Iteration:  2191
 C        -0.216413        -0.200006         0.321752
 C         1.295438        -0.504645         0.528828
 O         2.280694        -0.243748        -0.660358
 C         3.116543        -0.904134         0.428051
 C         1.926982        -1.878401         0.642194
 C         1.823898        -2.550222         2.014569
 C         2.472454        -1.721043         2.987783
 O         2.230441        -0.277242         2.861134
 C         2.454144         0.100903         1.400279
 H        -0.869654        -0.657939         1.003918
 H        -0.512722         0.814259         0.311194
 H        -0.537239        -0.549413        -0.650236
 H         4.124186        -1.160673         0.083964
 H         1.731437        -2.563541        -0.198851
 H         0.758273        -2.701518         2.301275
 H         2.102270        -3.663641         1.842512
 H         2.198891        -1.909307         4.058745
 H         3.614032        -1.781734         2.908801
 H         2.672630         1.191736         1.433175
