19
Iteration:  1290
 C        -0.234556        -0.204304         0.298822
 C         1.289451        -0.576038         0.476730
 O         2.245099        -0.263890        -0.645438
 C         3.116432        -0.821889         0.376872
 C         1.951757        -1.926388         0.594545
 C         1.781808        -2.464331         2.005054
 C         2.491246        -1.662375         3.080419
 O         2.356965        -0.278626         2.865347
 C         2.347941         0.009777         1.469634
 H        -0.857526         0.143287         1.150487
 H        -0.238122         0.635064        -0.387165
 H        -0.715048        -1.054131        -0.231118
 H         4.160782        -1.031456        -0.014308
 H         1.877989        -2.784867        -0.135900
 H         0.643691        -2.361278         2.148417
 H         2.123626        -3.515043         2.068882
 H         2.089768        -1.860726         4.026385
 H         3.663350        -1.984595         3.190141
 H         2.627000         1.030696         1.229742
