19
Iteration:   616
 C        -0.164623        -0.106474         0.199716
 C         1.203500        -0.576766         0.399659
 O         2.199901        -0.247053        -0.696986
 C         3.059012        -0.850290         0.427743
 C         1.915905        -1.929372         0.642422
 C         1.772282        -2.526056         2.076907
 C         2.551007        -1.695219         3.105967
 O         2.447670        -0.278368         2.857296
 C         2.318635        -0.011688         1.457471
 H        -0.652065        -0.419481         1.161537
 H        -0.238200         1.023720         0.047135
 H        -0.666668        -0.836396        -0.512861
 H         4.183050        -0.885029         0.382992
 H         1.893674        -2.659913        -0.189719
 H         0.733003        -2.376235         2.271716
 H         1.969174        -3.617831         2.064336
 H         2.248843        -1.833990         4.171319
 H         3.715113        -1.938091         3.010279
 H         2.520157         1.088388         1.491816
