19
Iteration:  4830
 C        -0.148440        -0.183507         0.344945
 C         1.305883        -0.575747         0.452618
 O         2.196354        -0.252440        -0.637159
 C         3.090111        -0.799563         0.396255
 C         1.961840        -1.909584         0.725693
 C         1.821583        -2.627641         1.989339
 C         2.418935        -1.722523         3.028308
 O         2.253202        -0.221358         2.748633
 C         2.440690         0.084674         1.433358
 H        -0.777314        -0.962483         0.681398
 H        -0.328007         0.734729         0.871500
 H        -0.486579        -0.065046        -0.677628
 H         4.110011        -0.899618         0.157498
 H         1.853124        -2.636071        -0.101630
 H         0.792951        -2.972441         2.383142
 H         2.534171        -3.461906         1.983209
 H         2.100434        -1.960058         4.100157
 H         3.566220        -1.761359         3.158134
 H         2.685332         1.163125         1.395472
