19
Iteration:  2545
 C        -0.137449        -0.086986         0.356982
 C         1.235251        -0.611165         0.492706
 O         2.291802        -0.221902        -0.630257
 C         3.143571        -0.822432         0.446861
 C         1.971224        -1.974610         0.475962
 C         1.895651        -2.598907         2.009764
 C         2.468881        -1.722499         3.075359
 O         2.235980        -0.251093         2.851047
 C         2.253576         0.032737         1.405745
 H        -0.664804        -0.468384         1.263721
 H        -0.091153         0.983886         0.560913
 H        -0.607006        -0.212872        -0.612378
 H         4.210905        -0.915621         0.127922
 H         1.821424        -2.680879        -0.312750
 H         0.732868        -2.870775         2.066065
 H         2.281299        -3.565027         1.887854
 H         2.130586        -1.757359         4.078751
 H         3.497657        -1.814878         3.242295
 H         2.210624         1.063472         1.190289
