19
Iteration:  3258charge 0 multiplicity 1
 C        -0.190795        -0.103145         0.311988
 C         1.245364        -0.496461         0.464733
 O         2.336707        -0.239553        -0.672504
 C         3.083741        -0.894700         0.389747
 C         1.884345        -1.932842         0.616490
 C         2.010482        -2.639593         1.972279
 C         2.556584        -1.691380         3.079591
 O         2.128279        -0.267137         2.825979
 C         2.290766         0.081685         1.501583
 H        -0.545564        -0.315310         1.325651
 H        -0.275372         1.009541         0.247460
 H        -0.879525        -0.489540        -0.519577
 H         4.056939        -1.100399        -0.058414
 H         1.628746        -2.594700        -0.191953
 H         1.160968        -3.232526         2.343050
 H         2.719312        -3.572989         1.903775
 H         2.037686        -1.987525         4.071055
 H         3.684524        -1.895534         3.166813
 H         2.338236         1.195321         1.403091
