19
Iteration:  1535
 C        -0.153068         0.004933         0.284241
 C         1.245953        -0.605754         0.461856
 O         2.275476        -0.338043        -0.674364
 C         3.037838        -0.867860         0.396468
 C         1.963258        -1.981563         0.612682
 C         1.890394        -2.556739         2.021695
 C         2.604704        -1.619553         3.027274
 O         2.185803        -0.268176         2.881373
 C         2.267379         0.028133         1.462386
 H        -0.750899        -0.198310         1.179126
 H         0.094483         1.023027        -0.013218
 H        -0.745035        -0.421155        -0.512624
 H         4.026639        -0.975065         0.101243
 H         1.930668        -2.711488        -0.128901
 H         0.912706        -2.818107         2.558851
 H         2.430920        -3.572035         2.165826
 H         2.290380        -1.859615         4.119111
 H         3.812561        -1.917916         2.799786
 H         2.268713         1.117001         1.403842
