19
Iteration:  4364charge 0 multiplicity 1
 C        -0.156394        -0.067982         0.166011
 C         1.224672        -0.546396         0.473568
 O         2.221123        -0.368243        -0.605435
 C         3.012047        -0.908789         0.455818
 C         1.884919        -1.975263         0.689457
 C         1.918479        -2.515752         2.071059
 C         2.711647        -1.637477         3.023565
 O         2.211505        -0.249583         2.783463
 C         2.262112         0.061222         1.446328
 H        -0.833823        -0.714968         0.654189
 H        -0.175883         0.988754         0.397875
 H        -0.334978        -0.146114        -0.885849
 H         4.177505        -0.980755         0.417693
 H         1.700247        -2.782534        -0.034380
 H         0.868117        -2.664656         2.449061
 H         2.351447        -3.582878         2.120289
 H         2.543481        -1.749645         4.090492
 H         3.808320        -1.696433         2.767265
 H         2.609283         1.084893         1.450943
