19
Iteration:  2742charge 0 multiplicity 1
 C        -0.038710        -0.071074         0.361188
 C         1.262550        -0.560845         0.512492
 O         2.202808        -0.267337        -0.667454
 C         3.073695        -0.773823         0.392353
 C         2.084713        -1.962490         0.620019
 C         1.885808        -2.585165         1.966468
 C         2.406653        -1.746510         3.098707
 O         2.202384        -0.313669         2.777064
 C         2.326883         0.056671         1.442045
 H        -0.852985        -0.658853         0.987168
 H        -0.134751         1.042435         0.544175
 H        -0.610357        -0.331290        -0.625646
 H         4.123376        -1.038226        -0.004667
 H         1.844032        -2.540362        -0.294697
 H         0.853063        -2.822614         2.256142
 H         2.431368        -3.480335         2.121618
 H         2.017346        -1.758767         4.183907
 H         3.525208        -1.753272         3.146044
 H         2.235692         1.141645         1.395650
