19
Iteration:  3420charge 0 multiplicity 1
 C        -0.202308        -0.045378         0.255464
 C         1.167301        -0.567346         0.417683
 O         2.360150        -0.206628        -0.591498
 C         3.064121        -0.873062         0.445045
 C         1.926186        -1.991675         0.659032
 C         1.940162        -2.616152         2.051207
 C         2.642505        -1.708113         3.030875
 O         2.223740        -0.263346         2.782116
 C         2.166849         0.024017         1.419348
 H        -0.839476        -0.639378         0.904510
 H        -0.259072         1.033829         0.408830
 H        -0.443219        -0.209396        -0.844321
 H         4.152067        -0.916704         0.421699
 H         1.706982        -2.717086        -0.152797
 H         0.805917        -2.906386         2.405966
 H         2.399841        -3.618215         2.082441
 H         2.457027        -1.812656         4.202562
 H         3.812613        -1.769435         3.033828
 H         2.339196         1.195707         1.326898
