19
Iteration:  1574charge 0 multiplicity 1
 C        -0.216168        -0.197295         0.184156
 C         1.276754        -0.388268         0.492151
 O         2.293612        -0.189024        -0.689083
 C         3.052819        -0.928060         0.339465
 C         1.771611        -1.925798         0.754676
 C         1.892815        -2.636050         2.142287
 C         2.539906        -1.660970         3.028364
 O         2.248419        -0.326567         2.799477
 C         2.452619         0.088643         1.473669
 H        -0.680331        -0.748812         1.089628
 H        -0.438122         0.910696         0.280602
 H        -0.489503        -0.874757        -0.704865
 H         4.180706        -1.170471         0.044558
 H         1.504862        -2.533452        -0.224514
 H         0.921650        -2.952813         2.474664
 H         2.562847        -3.450844         1.975712
 H         2.173804        -1.903454         4.006850
 H         3.586151        -1.660712         3.145279
 H         2.693269         1.200997         1.353164
