19
Iteration:  1452
 C        -0.193144        -0.335524         0.311529
 C         1.279710        -0.435049         0.448717
 O         2.293528        -0.188643        -0.589229
 C         3.028044        -0.943450         0.431225
 C         1.888670        -1.886055         0.620381
 C         1.776022        -2.497040         1.976995
 C         2.467275        -1.627997         3.095638
 O         2.344213        -0.270808         2.761948
 C         2.429022        -0.002252         1.434094
 H        -0.467299        -0.506356         1.356982
 H        -0.532512         0.686008         0.057951
 H        -0.485358        -1.114928        -0.451939
 H         4.088211        -1.106406         0.159176
 H         1.671258        -2.536378        -0.266746
 H         0.732965        -2.512349         2.232924
 H         2.170230        -3.454741         2.068469
 H         2.121513        -1.674542         4.102871
 H         3.626763        -1.927728         3.143971
 H         2.699453         1.020788         1.194299
