19
Iteration:  3107charge 0 multiplicity 1
 C        -0.162413        -0.049467         0.396866
 C         1.239871        -0.606617         0.419733
 O         2.292522        -0.239650        -0.646370
 C         3.113576        -0.824183         0.427007
 C         2.008888        -1.964096         0.632459
 C         1.951024        -2.695864         1.927890
 C         2.396051        -1.684169         3.085966
 O         2.210550        -0.250734         2.762431
 C         2.265331         0.084947         1.471622
 H        -0.626115        -0.366080         1.367984
 H        -0.109693         1.029658         0.343200
 H        -0.896186        -0.508569        -0.247533
 H         4.208306        -0.922069         0.336171
 H         1.943707        -2.622264        -0.229340
 H         1.003105        -3.059493         2.235397
 H         2.799909        -3.461731         1.820802
 H         2.068591        -1.934488         4.029808
 H         3.386252        -1.784735         3.002526
 H         2.355714         1.138150         1.326332
