19
Iteration:    25
 C        -0.090648        -0.190736         0.271200
 C         1.368618        -0.407904         0.480195
 O         2.270508        -0.248821        -0.685308
 C         2.990306        -1.135985         0.375978
 C         1.708852        -1.901763         0.660980
 C         1.792226        -2.568716         2.033718
 C         2.580732        -1.592599         3.045940
 O         2.243995        -0.195996         2.877246
 C         2.451280         0.058081         1.480108
 H        -0.770843        -0.942760         0.862817
 H        -0.446857         0.850655         0.526194
 H        -0.275575        -0.389629        -0.748898
 H         3.980916        -1.316865         0.004780
 H         1.453945        -2.548078        -0.200523
 H         0.751822        -2.971703         2.461235
 H         2.384899        -3.426835         1.897027
 H         2.472147        -1.838871         4.053752
 H         3.738698        -1.679835         2.770919
 H         2.793617         1.051028         1.313589
