19
Iteration:  1157charge 0 multiplicity 1
 C        -0.255170        -0.215110         0.175416
 C         1.342701        -0.416362         0.420309
 O         2.253303        -0.195832        -0.672187
 C         3.011052        -0.999824         0.524333
 C         1.764388        -1.895982         0.689978
 C         1.870798        -2.537651         2.017295
 C         2.617407        -1.627577         3.017531
 O         2.303926        -0.264426         2.864027
 C         2.422975         0.000009         1.488127
 H        -0.741272        -0.882597         0.886836
 H        -0.488533         0.809581         0.168294
 H        -0.527854        -0.568256        -0.806137
 H         4.092237        -1.182871         0.377677
 H         1.461485        -2.639805        -0.089441
 H         0.910407        -2.959322         2.461644
 H         2.419251        -3.490262         1.913687
 H         2.316648        -1.926242         3.965106
 H         3.635665        -1.720879         2.974923
 H         2.650831         1.031323         1.270168
