19
Iteration:  4794
 C        -0.209791        -0.362858         0.244688
 C         1.251769        -0.557884         0.415708
 O         2.305420        -0.163467        -0.630189
 C         3.051266        -0.857435         0.425219
 C         1.851967        -1.889799         0.580821
 C         1.750776        -2.418846         2.044871
 C         2.570853        -1.711349         3.035674
 O         2.381680        -0.257971         2.887033
 C         2.358978         0.031133         1.475553
 H        -0.728864        -1.052486         0.897534
 H        -0.425771         0.646439         0.683261
 H        -0.511207        -0.470865        -0.785468
 H         4.151055        -1.007342         0.275732
 H         1.903911        -2.650071        -0.151773
 H         0.763764        -2.379783         2.395288
 H         1.851695        -3.491776         1.807591
 H         2.174706        -2.012910         4.042881
 H         3.608740        -1.912160         2.947823
 H         2.646867         1.073686         1.294238
