19
Iteration:  2323
 C        -0.123431        -0.132430         0.296602
 C         1.294318        -0.583013         0.435757
 O         2.241825        -0.273116        -0.620433
 C         3.054777        -0.732305         0.423833
 C         2.051165        -1.979506         0.580980
 C         1.694289        -2.558878         2.006532
 C         2.472816        -1.726006         2.995004
 O         2.416891        -0.278503         2.871458
 C         2.209605         0.046448         1.512681
 H        -0.520252        -0.292981         1.269898
 H         0.029770         0.875627        -0.059146
 H        -0.588573        -0.846451        -0.387486
 H         4.146632        -1.097364         0.296093
 H         1.922347        -2.632093        -0.324098
 H         0.548389        -2.451367         2.057979
 H         2.104696        -3.459460         2.106944
 H         2.270808        -1.739931         4.091129
 H         3.504745        -1.950864         2.696263
 H         2.136591         1.196335         1.408059
