19
Iteration:   351charge 0 multiplicity 1
 C        -0.097906        -0.169541         0.261102
 C         1.338902        -0.431175         0.568526
 O         2.297435        -0.238404        -0.676736
 C         2.997224        -1.005604         0.318523
 C         1.730538        -1.921759         0.652245
 C         1.848329        -2.675959         2.083351
 C         2.518469        -1.607300         3.056046
 O         2.270432        -0.181870         2.815174
 C         2.386735         0.045206         1.452024
 H        -0.542995        -0.865004         1.045690
 H        -0.408576         0.837989         0.529165
 H        -0.225224        -0.420604        -0.748220
 H         4.023617        -1.263509         0.053692
 H         1.419697        -2.576145        -0.108038
 H         0.825402        -2.944004         2.450606
 H         2.408103        -3.598605         1.703254
 H         2.248875        -1.693171         4.091346
 H         3.763683        -1.846192         2.919550
 H         2.665404         1.082688         1.332381
