19
Iteration:  3981
 C        -0.102797        -0.004342         0.309439
 C         1.196422        -0.574296         0.458951
 O         2.293414        -0.248121        -0.688198
 C         3.009701        -0.980934         0.420582
 C         1.938338        -2.011190         0.574580
 C         1.975935        -2.599016         2.137487
 C         2.713781        -1.544346         3.072552
 O         2.073711        -0.293907         2.788867
 C         2.240863         0.014333         1.426502
 H        -0.558376         0.062924         1.304523
 H        -0.247519         0.898495        -0.314666
 H        -0.821478        -0.622643        -0.288198
 H         4.136898        -1.199724         0.334643
 H         1.880551        -2.852219        -0.171311
 H         0.944095        -2.660658         2.400095
 H         2.391969        -3.566548         2.028930
 H         2.396231        -1.722794         4.143124
 H         3.898236        -1.512397         3.101710
 H         2.365370         1.031112         1.231485
