19
Iteration:  1904
 C        -0.080099        -0.021860         0.281393
 C         1.283754        -0.535838         0.450103
 O         2.189872        -0.290574        -0.641012
 C         3.090453        -0.889476         0.431865
 C         1.926348        -1.964592         0.599139
 C         1.902725        -2.565307         2.039238
 C         2.609108        -1.652399         3.038420
 O         2.161812        -0.289802         2.850842
 C         2.280223        -0.001016         1.449986
 H        -0.595605        -0.193896         1.227722
 H        -0.120495         1.012513        -0.089396
 H        -0.530137        -0.668240        -0.436504
 H         4.140687        -0.804828         0.226236
 H         1.772237        -2.642936        -0.300019
 H         0.720369        -2.624066         2.277661
 H         2.271005        -3.693612         2.033979
 H         2.265990        -2.039931         4.082855
 H         3.772098        -1.788837         2.854707
 H         2.455084         1.082293         1.470473
