19
Iteration:  3942
 C        -0.231100        -0.147737         0.188695
 C         1.270608        -0.505962         0.580845
 O         2.218610        -0.397268        -0.664560
 C         3.028421        -0.870678         0.466693
 C         1.912857        -1.917292         0.707338
 C         1.893949        -2.600122         1.979488
 C         2.623695        -1.633015         3.054881
 O         2.257443        -0.223321         2.804997
 C         2.342773         0.102050         1.441842
 H        -0.971330        -0.476006         0.933663
 H        -0.226508         0.942490        -0.009988
 H        -0.335188        -0.657406        -0.788229
 H         4.044119        -1.033754         0.157376
 H         1.894650        -2.411350        -0.276774
 H         0.881449        -2.896160         2.394871
 H         2.329198        -3.673757         2.091011
 H         2.322149        -1.758502         4.053394
 H         3.654962        -1.660729         2.924531
 H         2.624903         1.214004         1.424595
