19
Iteration:  3678
 C        -0.217709        -0.305331         0.355662
 C         1.300374        -0.567151         0.419679
 O         2.241916        -0.173442        -0.627469
 C         3.067496        -0.848797         0.387008
 C         2.004192        -1.928791         0.595122
 C         1.798631        -2.487569         1.990279
 C         2.432574        -1.677317         3.098920
 O         2.374722        -0.217187         2.818110
 C         2.354533         0.004260         1.423019
 H        -0.652128        -1.085591         0.954190
 H        -0.414621         0.767831         0.566899
 H        -0.440440        -0.196690        -0.735884
 H         4.172865        -0.989330         0.209040
 H         1.863242        -2.822150        -0.068745
 H         0.797750        -2.460685         2.191814
 H         1.979317        -3.488719         2.175277
 H         1.903685        -1.829876         4.009711
 H         3.431866        -2.171900         3.347844
 H         2.550157         1.051007         1.245929
