19
Iteration:  3629charge 0 multiplicity 1
 C        -0.194672        -0.034974         0.224631
 C         1.247368        -0.468863         0.472808
 O         2.250811        -0.326513        -0.727759
 C         3.033028        -0.904350         0.438157
 C         1.951680        -1.906764         0.668207
 C         2.010975        -2.581363         2.035354
 C         2.589029        -1.666568         3.134154
 O         2.169047        -0.348172         2.819082
 C         2.288434         0.083214         1.411663
 H        -0.672262        -0.805752         0.858120
 H        -0.353013         0.956837         0.617553
 H        -0.518310        -0.020675        -0.796624
 H         4.066660        -1.106673         0.174835
 H         1.672064        -2.603710        -0.082753
 H         0.971849        -2.766949         2.510233
 H         2.533594        -3.639471         1.907748
 H         2.092282        -2.010728         4.107692
 H         3.631387        -1.804901         3.340793
 H         2.677565         1.140305         1.461236
