19
Iteration:  3238charge 0 multiplicity 1
 C        -0.116639        -0.106132         0.252492
 C         1.272274        -0.500343         0.494908
 O         2.142064        -0.196643        -0.624784
 C         3.028435        -0.845377         0.493305
 C         1.992984        -1.928637         0.664760
 C         1.958610        -2.637500         1.981725
 C         2.537429        -1.680911         3.036989
 O         2.189251        -0.344532         2.821316
 C         2.352934         0.032639         1.404307
 H        -0.852028        -0.285245         1.025271
 H        -0.340687         0.918270        -0.004873
 H        -0.325119        -0.487591        -0.734283
 H         4.116259        -0.893782         0.225575
 H         1.774177        -2.630030        -0.125992
 H         1.014849        -2.997636         2.246998
 H         2.492593        -3.692793         2.152782
 H         2.292756        -1.783918         4.081677
 H         3.550437        -1.782134         2.865156
 H         2.590270         1.077322         1.369623
