19
Iteration:  3964
 C        -0.174419        -0.074379         0.246806
 C         1.289577        -0.513498         0.354137
 O         2.263788        -0.312094        -0.664888
 C         3.018574        -0.880486         0.455046
 C         1.894057        -1.935527         0.755331
 C         1.968142        -2.591050         2.119166
 C         2.619445        -1.635580         3.027513
 O         2.152184        -0.310873         2.799433
 C         2.274175         0.055076         1.388318
 H        -0.564794        -0.128024         1.276429
 H        -0.108899         0.970121        -0.108479
 H        -0.804086        -0.596165        -0.479630
 H         4.058195        -1.070161         0.301613
 H         1.588706        -2.695225         0.003072
 H         1.087702        -3.078081         2.622823
 H         2.613001        -3.555800         2.119430
 H         2.577785        -1.805637         4.070246
 H         3.642365        -1.562743         2.716727
 H         2.506013         1.180328         1.351156
