19
Iteration:   352charge 0 multiplicity 1
 C        -0.095191        -0.163652         0.263028
 C         1.337738        -0.427308         0.564408
 O         2.291553        -0.243490        -0.670533
 C         2.998001        -1.003666         0.324441
 C         1.734963        -1.916771         0.654202
 C         1.846539        -2.681699         2.082971
 C         2.522670        -1.618134         3.058430
 O         2.273773        -0.170497         2.808868
 C         2.380883         0.038558         1.449138
 H        -0.580620        -0.852903         1.021609
 H        -0.396428         0.837354         0.529115
 H        -0.243732        -0.450815        -0.750730
 H         4.067843        -1.257693         0.084988
 H         1.436929        -2.602410        -0.116720
 H         0.813063        -2.916144         2.420158
 H         2.416988        -3.639101         1.680336
 H         2.260228        -1.712084         4.089081
 H         3.747600        -1.826758         2.915724
 H         2.656974         1.112133         1.340287
