19
Iteration:  3519charge 0 multiplicity 1
 C        -0.163037        -0.379640         0.321165
 C         1.290189        -0.587315         0.535091
 O         2.219151        -0.160329        -0.642433
 C         3.103394        -0.823170         0.390726
 C         1.983586        -1.951007         0.614381
 C         1.788812        -2.460388         1.934792
 C         2.313105        -1.674442         3.028312
 O         2.423950        -0.275094         2.855632
 C         2.411323         0.072684         1.505346
 H        -0.636399         0.107009         1.157180
 H        -0.134407         0.368436        -0.466709
 H        -0.757311        -1.140798        -0.194884
 H         4.100747        -0.855321        -0.024067
 H         1.752089        -2.524074        -0.270620
 H         0.817339        -2.614823         2.198025
 H         2.091600        -3.489737         1.979487
 H         1.738990        -1.686908         4.042097
 H         3.405392        -1.952999         3.136008
 H         2.545156         1.185760         1.265039
