19
Iteration:  4355
 C        -0.164881        -0.050962         0.178527
 C         1.249202        -0.525626         0.407999
 O         2.197160        -0.372422        -0.634544
 C         3.043801        -0.949809         0.505243
 C         1.900887        -1.968158         0.754936
 C         1.912217        -2.623715         2.097912
 C         2.660859        -1.641222         3.005773
 O         2.210501        -0.275984         2.825670
 C         2.297185         0.153104         1.397207
 H        -1.025026        -0.537895         0.626240
 H        -0.395677         0.978234         0.355298
 H        -0.413593        -0.084297        -0.881219
 H         4.168629        -0.862650         0.287678
 H         1.659540        -2.584846        -0.135805
 H         1.033939        -2.844597         2.692035
 H         2.629448        -3.324082         2.084125
 H         2.483704        -2.027985         3.991638
 H         3.787063        -1.474593         2.780407
 H         2.684044         1.193851         1.159624
