19
Iteration:  3652charge 0 multiplicity 1
 C        -0.187234        -0.170845         0.289906
 C         1.290820        -0.562921         0.515038
 O         2.214034        -0.253635        -0.618517
 C         3.095186        -0.867122         0.423309
 C         1.938394        -1.942437         0.617361
 C         1.855474        -2.681026         1.969822
 C         2.442602        -1.578608         3.059909
 O         2.284305        -0.204318         2.809623
 C         2.363780         0.069745         1.450859
 H        -0.844332        -0.949138         0.751295
 H        -0.255376         0.868156         0.597956
 H        -0.243043         0.007051        -0.765800
 H         4.139531        -1.108747         0.019274
 H         1.750980        -2.636472        -0.189277
 H         0.839319        -3.154752         2.280456
 H         2.703063        -3.522449         2.034468
 H         2.187320        -1.761631         4.168851
 H         3.460190        -1.953044         3.059481
 H         2.629617         1.130308         1.258555
