19
Iteration:  2816
 C        -0.136539        -0.226074         0.214045
 C         1.234861        -0.532404         0.487956
 O         2.205184        -0.187371        -0.583911
 C         3.088882        -0.778320         0.436620
 C         2.028908        -1.912641         0.624998
 C         1.692952        -2.568211         2.016979
 C         2.603087        -1.715509         2.998872
 O         2.312915        -0.346648         2.857888
 C         2.296158         0.065949         1.459541
 H        -0.877366        -0.304008         1.053743
 H        -0.321456         0.775543        -0.169393
 H        -0.450336        -0.807581        -0.649511
 H         4.218807        -0.787249         0.225380
 H         2.199851        -2.548250        -0.287724
 H         0.611699        -2.497680         2.220985
 H         1.952494        -3.735756         2.060538
 H         2.406775        -1.794327         4.122786
 H         3.725569        -2.091374         2.924108
 H         2.476928         1.130880         1.437882
