19
Iteration:  3267charge 0 multiplicity 1
 C        -0.216208        -0.086325         0.413345
 C         1.274664        -0.544446         0.417875
 O         2.372094        -0.252772        -0.678609
 C         3.073683        -0.900668         0.397984
 C         1.885858        -1.900343         0.594519
 C         2.046754        -2.559209         1.924984
 C         2.496468        -1.694508         3.082217
 O         2.135357        -0.315596         2.873853
 C         2.283267         0.020781         1.419759
 H        -0.731388        -0.230191         1.367018
 H        -0.363347         1.018126         0.216807
 H        -0.832831        -0.610128        -0.447340
 H         4.114387        -1.134914         0.193371
 H         1.569960        -2.643151        -0.138308
 H         1.027762        -3.044861         2.286798
 H         2.802129        -3.285026         1.820892
 H         1.992338        -1.813776         4.140386
 H         3.718888        -1.560561         3.200383
 H         2.383012         1.160218         1.409493
