19
Iteration:  4682
 C        -0.104244        -0.027844         0.419821
 C         1.306085        -0.548022         0.441496
 O         2.198807        -0.326755        -0.769119
 C         3.099728        -0.858808         0.393258
 C         2.018615        -2.011471         0.595536
 C         1.968859        -2.662281         2.015915
 C         2.492325        -1.675690         3.089198
 O         2.074419        -0.250387         2.851609
 C         2.309200         0.122144         1.419511
 H        -0.302049         0.254769         1.509004
 H        -0.193820         0.930566        -0.111541
 H        -0.950363        -0.651717         0.033653
 H         4.254350        -1.003653         0.243078
 H         1.770790        -2.777093        -0.170477
 H         0.996223        -2.837544         2.328349
 H         2.572104        -3.632809         1.918277
 H         2.116155        -1.904119         4.089199
 H         3.615262        -1.609417         3.093838
 H         2.587846         1.193306         1.427664
