19
Iteration:  3784charge 0 multiplicity 1
 C        -0.135500         0.030311         0.196827
 C         1.213317        -0.543844         0.450186
 O         2.165427        -0.334511        -0.643245
 C         3.004308        -0.857842         0.446210
 C         1.973249        -1.938160         0.781989
 C         2.026282        -2.680767         2.066053
 C         2.651485        -1.677528         3.019755
 O         2.094355        -0.344914         2.773077
 C         2.356416         0.109900         1.428417
 H        -0.720594         0.569645         0.931611
 H         0.010335         0.882592        -0.464280
 H        -0.823712        -0.715211        -0.183053
 H         4.130059        -0.817416         0.433877
 H         1.862190        -2.586932        -0.090126
 H         0.952688        -3.013419         2.426416
 H         2.775917        -3.602008         2.014168
 H         2.181141        -1.730637         4.039301
 H         3.720205        -1.792360         2.933593
 H         2.603697         1.151819         1.392890
