19
Iteration:  2217
 C        -0.050427        -0.042287         0.300326
 C         1.287546        -0.601726         0.379446
 O         2.223733        -0.220652        -0.668375
 C         3.050411        -0.798589         0.404006
 C         1.970629        -2.007967         0.562302
 C         1.857274        -2.535236         2.103574
 C         2.502050        -1.670783         3.076989
 O         2.256482        -0.352853         2.856205
 C         2.257717        -0.003193         1.407210
 H        -0.662087        -0.466509         1.176022
 H        -0.121406         1.071217         0.559294
 H        -0.692520        -0.276260        -0.582463
 H         4.189422        -0.775080         0.221646
 H         1.905875        -2.774495        -0.194213
 H         0.851552        -2.698488         2.408051
 H         2.103249        -3.641834         2.042900
 H         2.236830        -1.803808         4.135165
 H         3.628493        -1.844031         3.145799
 H         2.307828         1.087737         1.455514
