19
Iteration:  4351charge 0 multiplicity 1
 C        -0.189459        -0.041954         0.161181
 C         1.257573        -0.505085         0.408686
 O         2.198579        -0.369709        -0.670330
 C         3.043290        -0.940255         0.523647
 C         1.898295        -1.953846         0.768231
 C         1.926907        -2.660613         2.142737
 C         2.635393        -1.611588         2.981978
 O         2.203448        -0.277189         2.847630
 C         2.331726         0.149850         1.385141
 H        -1.017253        -0.482189         0.706157
 H        -0.402449         1.009414         0.486819
 H        -0.370848        -0.170370        -0.903245
 H         4.148823        -0.975847         0.188974
 H         1.706166        -2.482005        -0.178533
 H         0.994271        -3.015894         2.664626
 H         2.802668        -3.495802         1.989374
 H         2.523851        -2.058339         4.010396
 H         3.717826        -1.591789         2.852100
 H         2.545383         1.158834         1.076780
