19
Iteration:   934charge 0 multiplicity 1
 C        -0.250242        -0.236898         0.219931
 C         1.247887        -0.512503         0.503816
 O         2.298260        -0.202362        -0.634867
 C         3.068907        -0.924978         0.411917
 C         1.908513        -1.944603         0.664108
 C         1.757889        -2.517241         2.014220
 C         2.526502        -1.663492         3.048666
 O         2.396197        -0.289032         2.845720
 C         2.352388         0.097224         1.445962
 H        -0.796406        -0.423551         1.096787
 H        -0.500473         0.805502         0.140410
 H        -0.450835        -0.880167        -0.619821
 H         4.061811        -1.152137         0.095748
 H         1.591398        -2.568057        -0.176859
 H         0.632228        -2.542525         2.310171
 H         2.248981        -3.458282         1.945361
 H         2.385378        -1.766222         4.158143
 H         3.511001        -2.023108         2.696536
 H         2.801588         1.092554         1.464852
