19
Iteration:  2032
 C        -0.162892        -0.041054         0.353880
 C         1.255033        -0.556142         0.446098
 O         2.205574        -0.320389        -0.707738
 C         3.084647        -0.801242         0.446982
 C         2.075366        -1.994069         0.634535
 C         1.854960        -2.612757         2.063276
 C         2.476321        -1.680447         3.007423
 O         2.234410        -0.268436         2.814690
 C         2.342562         0.072050         1.443800
 H        -0.770961        -0.300232         1.316437
 H         0.000823         1.095827         0.426317
 H        -0.671195        -0.336174        -0.615347
 H         4.196075        -0.932638         0.247764
 H         2.048890        -2.653439        -0.257169
 H         0.602793        -2.666136         2.000285
 H         2.123638        -3.683758         2.118537
 H         2.241611        -2.125095         3.946615
 H         3.550809        -1.983986         2.988821
 H         2.458031         1.157692         1.547189
