19
Iteration:  4219
 C        -0.208749        -0.251749         0.303594
 C         1.286979        -0.566156         0.514241
 O         2.195819        -0.211295        -0.570840
 C         3.076074        -0.943491         0.389180
 C         1.949211        -1.951333         0.614787
 C         1.787750        -2.515128         2.038869
 C         2.501590        -1.591256         3.089556
 O         2.332766        -0.216918         2.776749
 C         2.398515         0.052843         1.357214
 H        -0.635392         0.043753         1.211175
 H        -0.149025         0.403324        -0.527253
 H        -0.658765        -1.081266        -0.214057
 H         4.138899        -1.103147         0.436380
 H         2.012442        -2.689217        -0.175701
 H         0.700888        -2.628088         2.124938
 H         2.267489        -3.484934         2.218615
 H         2.045008        -1.910230         4.064602
 H         3.590478        -1.760300         2.916316
 H         2.666333         1.051209         1.148863
