19
Iteration:  1584
 C        -0.225567        -0.227312         0.230621
 C         1.286263        -0.488880         0.445615
 O         2.295203        -0.205304        -0.681503
 C         3.039752        -0.885101         0.295459
 C         1.859161        -1.849817         0.681577
 C         1.857721        -2.583214         2.056809
 C         2.535197        -1.699973         3.142790
 O         2.297663        -0.288323         2.851734
 C         2.397582         0.064439         1.465258
 H        -0.832578        -0.722781         1.049955
 H        -0.503397         0.859662         0.083588
 H        -0.575284        -0.616356        -0.806185
 H         4.168656        -1.166754         0.158525
 H         1.336595        -2.667744         0.043665
 H         0.863081        -2.812854         2.465571
 H         2.324380        -3.579984         2.050767
 H         2.189091        -1.813652         4.137891
 H         3.688115        -1.882323         3.083740
 H         2.791031         1.133370         1.375301
