19
Iteration:  4347charge 0 multiplicity 1
 C        -0.205130        -0.028691         0.150644
 C         1.255627        -0.485930         0.434063
 O         2.205790        -0.368952        -0.697785
 C         3.045199        -0.916944         0.519371
 C         1.886663        -1.940281         0.765981
 C         1.961446        -2.690561         2.162382
 C         2.620780        -1.597610         2.982690
 O         2.193932        -0.264266         2.853657
 C         2.351637         0.113922         1.382306
 H        -0.982255        -0.585603         0.802209
 H        -0.301609         1.027299         0.515955
 H        -0.364791        -0.219895        -0.956005
 H         4.006277        -1.135028         0.194392
 H         1.764920        -2.506118        -0.164459
 H         1.024088        -3.145674         2.517883
 H         2.677089        -3.524050         1.981024
 H         2.540159        -1.905094         4.040918
 H         3.708547        -1.744143         2.851485
 H         2.463686         1.209893         1.142335
