19
Iteration:  1639charge 0 multiplicity 1
 C        -0.147048        -0.233231         0.331928
 C         1.295966        -0.544983         0.474665
 O         2.267725        -0.231362        -0.709195
 C         3.113883        -0.761829         0.387637
 C         1.998141        -1.895783         0.626421
 C         1.662367        -2.571134         2.048937
 C         2.471950        -1.686894         3.060479
 O         2.366870        -0.295747         2.800167
 C         2.317948         0.057748         1.439277
 H        -0.713681        -0.498617         1.273253
 H        -0.548854         0.773274         0.189543
 H        -0.648839        -0.872189        -0.464879
 H         4.259449        -0.964734         0.345186
 H         1.961864        -2.702471        -0.197090
 H         0.640131        -2.495935         2.513581
 H         2.053198        -3.598395         2.190071
 H         2.192864        -1.866189         4.089341
 H         3.602096        -2.101007         2.925872
 H         2.428798         1.186138         1.425764
