19
Iteration:  1678charge 0 multiplicity 1
 C        -0.186333        -0.164235         0.337780
 C         1.310638        -0.478432         0.550803
 O         2.327684        -0.185805        -0.670515
 C         3.053867        -0.968741         0.369669
 C         1.835863        -1.924029         0.624522
 C         1.895490        -2.611519         2.040153
 C         2.508180        -1.602121         2.997386
 O         2.183184        -0.265871         2.818535
 C         2.395026         0.007097         1.469759
 H        -0.629688        -0.321799         1.314328
 H        -0.359777         0.761894        -0.234649
 H        -0.438057        -0.859963        -0.479063
 H         4.087532        -1.133301         0.097350
 H         1.463742        -2.481962        -0.202866
 H         0.944649        -3.128788         2.233435
 H         2.611054        -3.508511         2.105008
 H         2.166247        -1.789895         4.051110
 H         3.529987        -1.679088         2.909885
 H         2.629379         1.065507         1.343579
