19
Iteration:   204
 C        -0.207688        -0.000610         0.269690
 C         1.253670        -0.564134         0.446716
 O         2.177917        -0.345845        -0.660833
 C         3.124068        -0.860297         0.465659
 C         1.976444        -1.919330         0.569821
 C         1.824417        -2.555483         2.047426
 C         2.563792        -1.706656         3.140127
 O         2.314247        -0.306259         2.804171
 C         2.340814         0.016174         1.443167
 H        -0.480124         0.560419         1.150016
 H        -0.169361         0.739070        -0.562170
 H        -1.080383        -0.639279        -0.114814
 H         4.168911        -0.916578         0.091873
 H         1.938151        -2.662366        -0.262213
 H         0.703087        -2.559017         2.243111
 H         2.136696        -3.568412         2.070982
 H         2.239756        -1.911233         4.195624
 H         3.604647        -1.874387         3.080458
 H         2.492405         1.130340         1.408524
