19
Iteration:  3814charge 0 multiplicity 1
 C        -0.104872        -0.002644         0.315930
 C         1.237951        -0.586813         0.406107
 O         2.254622        -0.310430        -0.660896
 C         3.028868        -0.942289         0.397760
 C         1.939637        -1.971548         0.658685
 C         2.007840        -2.612785         2.035419
 C         2.597293        -1.612023         2.991204
 O         2.098623        -0.243373         2.861951
 C         2.264333         0.032058         1.460395
 H        -0.654069         0.105389         1.305062
 H        -0.061364         0.908960        -0.282023
 H        -0.772315        -0.585526        -0.334022
 H         4.098707        -1.027787         0.342621
 H         1.803074        -2.730082        -0.131733
 H         1.044864        -2.899333         2.318069
 H         2.696478        -3.393250         1.952092
 H         2.347132        -1.826656         4.097008
 H         3.706080        -1.714943         3.164603
 H         2.411938         1.161040         1.348997
