19
Iteration:  4664charge 0 multiplicity 1
 C        -0.202875        -0.088873         0.501089
 C         1.288608        -0.539061         0.421059
 O         2.296491        -0.338731        -0.727728
 C         3.091218        -0.829397         0.390511
 C         2.038422        -1.867588         0.688956
 C         1.881293        -2.600683         2.044371
 C         2.488124        -1.653823         3.082736
 O         2.163752        -0.321977         2.728920
 C         2.326887         0.031082         1.377199
 H        -0.518560        -0.153334         1.507435
 H        -0.253809         0.903833         0.073594
 H        -0.792335        -0.706626        -0.132958
 H         4.111106        -0.958995         0.097692
 H         2.017178        -2.420800        -0.234023
 H         0.726362        -2.723479         2.028536
 H         2.380161        -3.565787         2.121132
 H         1.992309        -1.846632         4.058198
 H         3.616527        -1.743845         3.178043
 H         2.350657         1.150398         1.390628
