19
Iteration:    18
 C        -0.044511        -0.183862         0.274012
 C         1.370423        -0.439646         0.463595
 O         2.227775        -0.211327        -0.720904
 C         3.034622        -1.124052         0.389585
 C         1.713623        -1.919025         0.695645
 C         1.800735        -2.564678         2.071525
 C         2.549062        -1.656892         3.007736
 O         2.261825        -0.170805         2.917050
 C         2.399585         0.086636         1.445692
 H        -0.508980        -0.836522         1.034606
 H        -0.369452         0.854912         0.407726
 H        -0.291956        -0.472234        -0.795566
 H         4.085498        -1.473093         0.125960
 H         1.307601        -2.531285        -0.163860
 H         0.754951        -2.911347         2.380427
 H         2.445129        -3.479445         1.904818
 H         2.385832        -2.033907         4.068248
 H         3.683342        -1.716782         2.772864
 H         2.721884         1.129394         1.142788
