19
Iteration:  4103charge 0 multiplicity 1
 C        -0.278966        -0.271674         0.308708
 C         1.278197        -0.480829         0.428149
 O         2.229069        -0.302396        -0.750652
 C         3.090507        -0.856640         0.411098
 C         2.058655        -1.945301         0.734184
 C         1.738978        -2.549035         2.093039
 C         2.518474        -1.686465         3.080417
 O         2.367742        -0.204077         2.802666
 C         2.368558         0.094551         1.413714
 H        -0.889626        -1.004768         0.855222
 H        -0.653025         0.791940         0.544233
 H        -0.558945        -0.291877        -0.786063
 H         4.234161        -0.893146         0.417639
 H         1.906002        -2.602389        -0.161321
 H         0.657614        -2.593749         2.403001
 H         2.035884        -3.626066         2.044129
 H         2.156726        -1.772875         4.104225
 H         3.511615        -1.909547         2.967187
 H         2.697137         1.141246         1.329604
