19
Iteration:  2381
 C        -0.115053        -0.203488         0.309330
 C         1.273656        -0.507690         0.499662
 O         2.325825        -0.178378        -0.614939
 C         3.032003        -0.948023         0.337308
 C         1.785591        -1.936118         0.575483
 C         1.924359        -2.616652         1.953001
 C         2.476198        -1.634164         3.042773
 O         2.170632        -0.206701         2.915204
 C         2.444487         0.042672         1.442775
 H        -0.712844        -0.623045         1.125924
 H        -0.235003         0.861403         0.350176
 H        -0.395515        -0.489594        -0.662201
 H         4.091078        -1.268463         0.274639
 H         1.249029        -2.540142        -0.099176
 H         1.075756        -3.033264         2.382324
 H         2.511129        -3.537919         1.822831
 H         2.206756        -1.995344         4.013563
 H         3.610317        -1.798548         3.049205
 H         2.731673         1.024523         1.201777
