19
Iteration:  1919
 C        -0.166267        -0.061733         0.286882
 C         1.214503        -0.662208         0.469648
 O         2.298463        -0.221525        -0.680628
 C         3.002345        -0.803804         0.419721
 C         2.033515        -2.001248         0.641714
 C         1.793340        -2.547015         2.016182
 C         2.598539        -1.688168         3.031419
 O         2.271680        -0.331632         2.825416
 C         2.258332         0.024512         1.475381
 H        -0.746250         0.064012         1.232130
 H         0.178695         0.990343         0.067715
 H        -0.819526        -0.482674        -0.570591
 H         4.086639        -1.043515         0.339471
 H         2.001628        -2.718164        -0.169026
 H         0.678664        -2.421838         2.374782
 H         2.177841        -3.531212         2.107412
 H         2.425503        -1.781529         4.133756
 H         3.664057        -1.693642         3.035531
 H         2.351409         1.125570         1.223610
