19
Iteration:  4243charge 0 multiplicity 1
 C        -0.186704        -0.330157         0.372558
 C         1.377496        -0.550217         0.456741
 O         2.259667        -0.214039        -0.696506
 C         3.118270        -0.851358         0.283722
 C         1.937065        -1.944440         0.630111
 C         1.716426        -2.470038         2.082005
 C         2.418536        -1.635274         3.071697
 O         2.355124        -0.219043         2.844950
 C         2.388022         0.056032         1.450065
 H        -0.400119        -0.269442         1.403268
 H        -0.635510         0.215837        -0.449123
 H        -0.501963        -1.339718         0.156052
 H         4.231486        -1.127587         0.061115
 H         1.771294        -2.696320        -0.185365
 H         0.626567        -2.297327         2.246293
 H         1.897522        -3.498732         2.149222
 H         1.927293        -1.912022         4.043624
 H         3.529526        -1.761805         2.919195
 H         2.429106         1.119112         1.301537
