19
Iteration:  2903
 C        -0.166071        -0.096574         0.339600
 C         1.318326        -0.476036         0.422649
 O         2.222887        -0.215140        -0.704360
 C         3.102644        -0.861155         0.342158
 C         2.050624        -1.904257         0.620531
 C         1.901885        -2.614874         2.025455
 C         2.484972        -1.690223         3.038471
 O         2.100348        -0.361991         2.907510
 C         2.319063         0.060001         1.450978
 H        -0.510404        -0.373373         1.349802
 H        -0.131808         0.958031         0.103917
 H        -0.684461        -0.794703        -0.252041
 H         4.234820        -0.918040         0.179209
 H         1.990251        -2.666087        -0.229377
 H         0.842758        -2.791867         2.284802
 H         2.464135        -3.648438         2.170291
 H         2.180754        -2.003933         4.071658
 H         3.604350        -1.814795         2.988557
 H         2.625149         1.075682         1.386361
