19
Iteration:  2537
 C        -0.046847        -0.098165         0.363857
 C         1.283571        -0.673446         0.513876
 O         2.250861        -0.216481        -0.610456
 C         3.058742        -0.765119         0.384732
 C         2.045583        -1.967209         0.586366
 C         1.818081        -2.619398         1.950906
 C         2.449817        -1.685210         3.045050
 O         2.248056        -0.289031         2.825821
 C         2.259236         0.044954         1.419487
 H        -0.752866        -0.331145         1.127677
 H        -0.025154         0.991513         0.443972
 H        -0.589708        -0.328692        -0.577094
 H         4.073688        -0.784795         0.056393
 H         2.026987        -2.631320        -0.308728
 H         0.700011        -2.566016         2.181326
 H         2.284765        -3.671362         2.228398
 H         2.024059        -1.774458         4.113415
 H         3.574935        -2.020097         3.019556
 H         2.217275         1.152562         1.283229
