19
Iteration:  4778
 C        -0.183062        -0.302580         0.191126
 C         1.273568        -0.558308         0.414189
 O         2.194770        -0.108136        -0.590747
 C         3.102913        -0.887620         0.446711
 C         2.013539        -1.976975         0.641902
 C         1.621039        -2.495012         2.029136
 C         2.611670        -1.660766         3.034002
 O         2.409197        -0.285146         2.866661
 C         2.334953         0.044542         1.490323
 H        -0.824600        -0.882560         0.936153
 H        -0.551336         0.734142         0.162956
 H        -0.495651        -0.648372        -0.845689
 H         4.169282        -1.002143         0.143863
 H         1.692435        -2.571608        -0.275831
 H         0.532360        -2.248045         2.293707
 H         1.982016        -3.453559         2.365120
 H         2.496513        -2.014258         4.056947
 H         3.596502        -1.925915         2.559123
 H         2.383846         1.138433         1.411884
