19
Iteration:  2843
 C        -0.158670        -0.214620         0.163069
 C         1.231307        -0.536711         0.438240
 O         2.200143        -0.158603        -0.641080
 C         3.102672        -0.785945         0.359961
 C         1.935250        -1.876041         0.621185
 C         1.812155        -2.546733         2.021389
 C         2.621071        -1.767252         3.110201
 O         2.301097        -0.371197         2.945556
 C         2.299990         0.038206         1.465715
 H        -0.684592        -0.012060         1.081799
 H        -0.250185         0.724858        -0.418590
 H        -0.579172        -0.949433        -0.571404
 H         4.144522        -0.830406         0.179670
 H         1.954289        -2.525031        -0.229251
 H         0.771129        -2.584397         2.343216
 H         2.144585        -3.514184         2.013301
 H         2.196453        -1.934250         4.100601
 H         3.615086        -1.984266         3.180199
 H         2.475851         1.143188         1.481200
