19
Iteration:  2360charge 0 multiplicity 1
 C        -0.144502        -0.175356         0.297693
 C         1.298179        -0.395456         0.431739
 O         2.249889        -0.191622        -0.659096
 C         3.062449        -0.947370         0.368376
 C         1.961310        -1.875341         0.626315
 C         1.821463        -2.561271         2.041172
 C         2.484028        -1.689377         3.117164
 O         2.230661        -0.340552         2.771300
 C         2.392907         0.051764         1.495446
 H        -0.675250        -0.637097         1.146545
 H        -0.626240         0.794797         0.274647
 H        -0.510015        -0.678312        -0.579317
 H         4.077231        -1.226022         0.064084
 H         1.753213        -2.598413        -0.132903
 H         0.900611        -2.862313         2.363922
 H         2.350730        -3.621384         1.952598
 H         2.185466        -1.954989         4.114831
 H         3.615445        -1.868312         3.146437
 H         2.663177         1.071592         1.500787
