19
Iteration:   323charge 0 multiplicity 1
 C        -0.237257        -0.140606         0.318049
 C         1.287737        -0.450688         0.466114
 O         2.232582        -0.264957        -0.650435
 C         3.070668        -1.022606         0.372189
 C         1.902871        -1.876652         0.643153
 C         1.887268        -2.518793         2.015540
 C         2.519619        -1.658515         3.146148
 O         2.253777        -0.222171         2.792513
 C         2.441374        -0.055241         1.414838
 H        -0.675774        -0.757397         1.080715
 H        -0.452147         0.920841         0.530177
 H        -0.428825        -0.203564        -0.811621
 H         4.165120        -1.193302         0.098174
 H         1.648417        -2.697837        -0.149025
 H         0.809211        -2.603815         2.264137
 H         2.104016        -3.571930         1.860521
 H         2.137642        -1.785480         4.190945
 H         3.543312        -1.848407         3.163707
 H         2.833511         1.002755         1.172006
