19
Iteration:  3532
 C        -0.177409        -0.316172         0.244462
 C         1.306772        -0.509380         0.479463
 O         2.167897        -0.164990        -0.612436
 C         3.111398        -0.806087         0.356214
 C         2.013445        -1.858098         0.609582
 C         1.716659        -2.571420         2.013448
 C         2.439116        -1.704101         3.142043
 O         2.382424        -0.271150         2.821468
 C         2.427082         0.041201         1.424833
 H        -0.772524        -0.040235         1.171434
 H        -0.410546         0.395650        -0.596275
 H        -0.558278        -1.308509         0.011397
 H         4.226762        -0.913144         0.231850
 H         1.885362        -2.566472        -0.200188
 H         0.611405        -2.620138         1.965884
 H         2.102075        -3.524686         2.081286
 H         1.879651        -1.945803         4.146817
 H         3.498277        -2.100216         3.366077
 H         2.626673         1.087470         1.421626
