19
Iteration:  4455
 C        -0.171461        -0.282968         0.418783
 C         1.350074        -0.539110         0.395474
 O         2.164052        -0.188907        -0.679375
 C         3.133353        -0.892761         0.406952
 C         2.003341        -1.968908         0.573196
 C         1.821510        -2.499809         2.046397
 C         2.368444        -1.619910         3.137688
 O         2.356017        -0.272933         2.762700
 C         2.397247         0.065647         1.424500
 H        -0.659183        -0.093872         1.390368
 H        -0.373617         0.533103        -0.278561
 H        -0.894965        -1.071168         0.114326
 H         4.166399        -1.165072         0.066419
 H         1.867344        -2.783405        -0.170365
 H         0.702925        -2.678337         2.191845
 H         2.260031        -3.455258         2.079444
 H         1.706800        -1.513535         4.006024
 H         3.418542        -1.902087         3.489965
 H         2.594922         1.165484         1.121639
