19
Iteration:  2673charge 0 multiplicity 1
 C        -0.174523        -0.275654         0.182875
 C         1.295174        -0.463810         0.519868
 O         2.212756        -0.184753        -0.637344
 C         3.036711        -0.852358         0.399080
 C         1.905026        -1.877020         0.641200
 C         1.780230        -2.540731         2.010052
 C         2.529543        -1.751202         3.016397
 O         2.207933        -0.339734         2.850314
 C         2.525966         0.119105         1.557297
 H        -0.729609        -0.218816         1.190087
 H        -0.283420         0.634949        -0.413567
 H        -0.452671        -1.164655        -0.373080
 H         4.128136        -1.154804         0.221954
 H         1.846549        -2.441175        -0.310836
 H         0.768149        -2.576211         2.124598
 H         2.218035        -3.642824         2.005348
 H         2.343850        -1.913971         4.081051
 H         3.680902        -1.778168         2.848529
 H         2.898966         1.140220         1.487383
