19
Iteration:  3114charge 0 multiplicity 1
 C        -0.205663        -0.066052         0.425147
 C         1.248335        -0.573305         0.432501
 O         2.319075        -0.197298        -0.656101
 C         3.110412        -0.831247         0.456652
 C         2.015634        -1.958208         0.620108
 C         1.947196        -2.685633         1.975410
 C         2.392508        -1.659673         3.041762
 O         2.249263        -0.292592         2.765612
 C         2.258339         0.023925         1.406110
 H        -0.885134        -0.341466         1.224337
 H        -0.206120         1.012291         0.223843
 H        -0.921961        -0.547340        -0.330630
 H         4.157396        -0.815726         0.191623
 H         2.012789        -2.542027        -0.300640
 H         0.898499        -3.059257         2.117748
 H         2.551480        -3.641565         2.119433
 H         2.024373        -1.920872         4.167155
 H         3.697115        -1.704011         3.365583
 H         2.312140         1.188514         1.356791
