19
Iteration:  4055
 C        -0.249116        -0.367981         0.295841
 C         1.257564        -0.555417         0.437799
 O         2.224203        -0.177100        -0.666462
 C         3.074489        -0.900452         0.387578
 C         1.984964        -1.937501         0.602564
 C         1.788672        -2.452813         2.034532
 C         2.396333        -1.593808         3.159635
 O         2.490777        -0.228179         2.837133
 C         2.414709         0.042923         1.428774
 H        -0.765540        -0.613917         1.269253
 H        -0.640377         0.601738        -0.105508
 H        -0.748517        -0.968336        -0.511872
 H         4.097134        -1.208412         0.076600
 H         1.892114        -2.489015        -0.351751
 H         0.630506        -2.633614         1.968559
 H         2.139491        -3.484855         2.300469
 H         1.910095        -1.839718         4.171261
 H         3.405793        -2.024468         3.122010
 H         2.573617         1.123096         1.356088
