19
Iteration:  1459charge 0 multiplicity 1
 C        -0.198491        -0.340926         0.319087
 C         1.313883        -0.438376         0.423489
 O         2.293902        -0.179445        -0.612345
 C         3.033062        -0.985795         0.424847
 C         1.845982        -1.895712         0.604532
 C         1.763333        -2.478162         1.959251
 C         2.498507        -1.652482         3.076332
 O         2.327401        -0.220435         2.818116
 C         2.452360         0.058238         1.445913
 H        -0.553606        -0.701301         1.297619
 H        -0.443558         0.620626        -0.122251
 H        -0.538096        -1.195350        -0.234369
 H         3.974312        -1.337626         0.084505
 H         1.700167        -2.538781        -0.217849
 H         0.735605        -2.721402         2.372303
 H         2.338721        -3.518580         1.979931
 H         2.083591        -1.763017         4.134687
 H         3.448812        -1.965351         3.107471
 H         2.746526         1.118265         1.447352
