19
Iteration:  3311
 C        -0.076037        -0.223433         0.414666
 C         1.295697        -0.572421         0.597220
 O         2.233617        -0.220542        -0.683442
 C         3.148886        -0.758538         0.308239
 C         2.049351        -1.894092         0.657255
 C         1.806328        -2.605929         1.966799
 C         2.415439        -1.706341         3.033779
 O         2.193696        -0.294410         2.796587
 C         2.317773         0.056127         1.422995
 H        -0.559619        -0.176907         1.375164
 H        -0.188870         0.825127         0.044052
 H        -0.638395        -0.830198        -0.377644
 H         4.190566        -0.727745         0.055370
 H         1.910907        -2.570003        -0.183432
 H         0.699749        -2.899148         2.122688
 H         2.295244        -3.490636         2.102929
 H         1.991707        -1.886185         4.097630
 H         3.508278        -1.947625         2.871938
 H         2.397460         1.186692         1.453352
