19
Iteration:  4564
 C        -0.214709        -0.173493         0.108158
 C         1.198749        -0.635523         0.473725
 O         2.210264        -0.306401        -0.609159
 C         3.070993        -0.803869         0.455021
 C         1.851706        -1.945361         0.655076
 C         1.816118        -2.573703         2.074717
 C         2.657806        -1.632669         2.989336
 O         2.394889        -0.259630         2.863822
 C         2.282044         0.087440         1.489997
 H        -0.942405        -0.642932         0.768767
 H        -0.335318         0.881953         0.246476
 H        -0.252269        -0.389130        -0.942611
 H         4.224236        -0.866443         0.301094
 H         1.969413        -2.698348        -0.122651
 H         0.765143        -2.275120         2.462720
 H         2.078784        -3.665643         2.231224
 H         2.386558        -1.756796         4.035274
 H         3.704230        -1.772544         2.866561
 H         2.697771         1.152116         1.314910
