19
Iteration:   822
 C        -0.175946        -0.069165         0.281806
 C         1.243252        -0.498957         0.431762
 O         2.231304        -0.248540        -0.630333
 C         3.010531        -0.906375         0.389581
 C         1.999214        -1.940082         0.616678
 C         1.877812        -2.623899         2.095242
 C         2.549623        -1.657825         3.096915
 O         2.275983        -0.294912         2.754173
 C         2.309296         0.015244         1.418048
 H        -0.573539        -0.315319         1.235368
 H        -0.226468         0.980158         0.334438
 H        -0.639958        -0.542828        -0.540521
 H         4.091960        -1.140959         0.281639
 H         1.937202        -2.718389        -0.111563
 H         0.808501        -2.417362         2.344224
 H         2.142891        -3.683877         2.146640
 H         2.174736        -1.730007         4.100880
 H         3.611838        -1.787065         3.165502
 H         2.722206         1.010614         1.280758
