19
Iteration:  3527
 C        -0.186103        -0.341325         0.272170
 C         1.296536        -0.550520         0.487457
 O         2.174996        -0.162349        -0.613939
 C         3.109394        -0.829002         0.361634
 C         2.017750        -1.872053         0.612067
 C         1.723328        -2.533983         1.980663
 C         2.398085        -1.684282         3.119118
 O         2.394807        -0.268543         2.833760
 C         2.452990         0.049102         1.438764
 H        -0.746826         0.024046         1.103942
 H        -0.161102         0.433105        -0.485929
 H        -0.576042        -1.341348         0.004518
 H         4.173784        -0.774392         0.224341
 H         1.741123        -2.587377        -0.202555
 H         0.615496        -2.524926         2.082775
 H         2.258321        -3.562542         2.006590
 H         1.838925        -1.936669         3.980140
 H         3.384246        -2.082670         3.249462
 H         2.550575         1.186273         1.443592
