19
Iteration:  2072charge 0 multiplicity 1
 C        -0.256042        -0.100598         0.311623
 C         1.299206        -0.453769         0.464830
 O         2.359238        -0.169607        -0.672894
 C         3.012895        -1.024909         0.364869
 C         1.823335        -1.933628         0.650808
 C         1.984916        -2.587348         1.994081
 C         2.523361        -1.663737         3.024382
 O         2.148689        -0.298411         2.851748
 C         2.415485         0.032354         1.487215
 H        -0.689771        -0.366597         1.265902
 H        -0.385961         0.902307        -0.016652
 H        -0.683662        -0.693597        -0.518205
 H         4.112488        -1.266454         0.270466
 H         1.538056        -2.653558        -0.081669
 H         1.107076        -2.943407         2.402031
 H         2.525890        -3.516291         2.063122
 H         2.103057        -1.807110         4.010555
 H         3.607138        -1.590292         3.037854
 H         2.931507         0.995237         1.314700
