19
Iteration:  2575
 C        -0.177376        -0.145673         0.293330
 C         1.268087        -0.355863         0.487580
 O         2.297403        -0.214778        -0.636349
 C         3.035382        -0.929102         0.411997
 C         1.861726        -1.903618         0.636981
 C         1.972699        -2.644726         2.032174
 C         2.470069        -1.708376         3.071875
 O         2.145346        -0.324660         2.781878
 C         2.437739         0.096199         1.443678
 H        -0.547251        -0.894233         1.084784
 H        -0.408104         0.919451         0.498691
 H        -0.480338        -0.553345        -0.669441
 H         4.070423        -1.276779         0.088684
 H         1.653592        -2.602635        -0.182259
 H         1.049069        -3.096507         2.202381
 H         2.640876        -3.417195         1.811267
 H         2.074431        -1.919052         4.055170
 H         3.595306        -1.766465         3.079991
 H         2.775863         1.126717         1.356824
