19
Iteration:  3501charge 0 multiplicity 1
 C        -0.175609        -0.283151         0.382430
 C         1.269521        -0.580663         0.461103
 O         2.277313        -0.183230        -0.606200
 C         3.089329        -0.868909         0.378441
 C         2.027072        -1.935913         0.532233
 C         1.771289        -2.600109         1.910575
 C         2.355317        -1.629312         3.101609
 O         2.427034        -0.183752         2.840650
 C         2.316072         0.053914         1.452489
 H        -0.543608        -0.096777         1.452926
 H        -0.371736         0.639452        -0.237623
 H        -0.624443        -1.225003         0.049466
 H         4.228994        -0.988002         0.294231
 H         1.883508        -2.563737        -0.370451
 H         0.562237        -2.775121         2.009685
 H         2.307492        -3.534722         2.038262
 H         1.661155        -1.763146         3.931550
 H         3.385130        -1.987195         3.311069
 H         2.348627         1.091349         1.327008
