19
Iteration:  1726
 C        -0.151497         0.021406         0.262597
 C         1.222145        -0.559783         0.456587
 O         2.207486        -0.351309        -0.731858
 C         3.042246        -0.767710         0.350427
 C         2.050454        -2.000074         0.670163
 C         1.916501        -2.527429         2.089266
 C         2.578394        -1.752717         3.102686
 O         2.233485        -0.353722         2.873860
 C         2.218006         0.087817         1.429911
 H        -0.614060        -0.057505         1.201677
 H         0.055974         1.010831        -0.023420
 H        -0.590476        -0.298679        -0.650814
 H         4.185116        -0.892971         0.303733
 H         1.998011        -2.783595        -0.131776
 H         0.801115        -2.661932         2.217542
 H         2.149993        -3.633323         2.001681
 H         2.259761        -1.932049         4.074211
 H         3.651231        -1.866341         2.988719
 H         2.460988         1.159814         1.590927
