19
Iteration:  4485charge 0 multiplicity 1
 C        -0.162182        -0.127908         0.444829
 C         1.343411        -0.611356         0.463926
 O         2.235865        -0.323747        -0.674172
 C         3.093497        -0.821419         0.316342
 C         2.018624        -1.983402         0.577813
 C         1.868160        -2.613014         2.015603
 C         2.389289        -1.605779         3.096412
 O         2.223946        -0.226782         2.797311
 C         2.362365         0.089641         1.418489
 H        -0.439636         0.237383         1.434785
 H        -0.182614         0.733154        -0.160657
 H        -0.911384        -0.849743         0.151549
 H         4.204484        -0.974532        -0.082456
 H         1.813448        -2.739643        -0.176582
 H         0.881328        -3.027867         2.316418
 H         2.534136        -3.570865         2.165826
 H         1.949055        -1.584898         4.060962
 H         3.406856        -1.727890         3.308897
 H         2.363041         1.178977         1.189458
