19
Iteration:  1155
 C        -0.241168        -0.225261         0.176974
 C         1.322471        -0.431624         0.431907
 O         2.263427        -0.189514        -0.669499
 C         3.024428        -0.992045         0.509177
 C         1.753188        -1.896567         0.685563
 C         1.862951        -2.534832         2.027419
 C         2.627733        -1.632165         3.003676
 O         2.300536        -0.260694         2.865532
 C         2.418552         0.004644         1.480064
 H        -0.755426        -0.848530         0.936943
 H        -0.509113         0.852264         0.174502
 H        -0.482252        -0.601620        -0.835843
 H         4.068493        -1.202150         0.378735
 H         1.473508        -2.665573        -0.081338
 H         0.892478        -2.952227         2.466524
 H         2.393111        -3.448754         1.876063
 H         2.278800        -1.916936         4.024908
 H         3.678078        -1.795043         3.031474
 H         2.655736         1.072663         1.301218
