19
Iteration:  3767
 C        -0.149275        -0.049285         0.167587
 C         1.219383        -0.486470         0.452624
 O         2.218482        -0.280366        -0.674743
 C         3.040784        -0.877821         0.427768
 C         1.907777        -1.924393         0.634755
 C         1.985230        -2.577890         2.086102
 C         2.644625        -1.675186         3.122777
 O         2.203890        -0.345828         2.833337
 C         2.250036         0.015690         1.459208
 H        -0.561468         0.282915         1.132713
 H        -0.102058         0.740133        -0.637324
 H        -0.851835        -0.841151        -0.224708
 H         4.072532        -1.160546         0.198817
 H         1.677308        -2.670461        -0.163701
 H         0.987078        -2.702511         2.377683
 H         2.499805        -3.480355         1.922887
 H         2.495847        -1.944997         4.156118
 H         3.793126        -1.662041         3.239261
 H         2.376701         1.147793         1.436242
