19
Iteration:  1771charge 0 multiplicity 1
 C        -0.213790        -0.293100         0.262691
 C         1.231012        -0.453871         0.501131
 O         2.369121        -0.194187        -0.569975
 C         3.008384        -0.983941         0.418296
 C         1.835662        -1.912690         0.623029
 C         1.815832        -2.505358         1.979227
 C         2.561524        -1.674366         2.988796
 O         2.326665        -0.203454         2.856974
 C         2.391412         0.033279         1.460760
 H        -0.680016        -0.613820         1.169833
 H        -0.604938         0.654573         0.040236
 H        -0.501781        -0.867163        -0.556344
 H         4.023965        -1.348044         0.187628
 H         1.617512        -2.343350        -0.365573
 H         0.775909        -2.756045         2.282222
 H         2.176988        -3.542268         1.807132
 H         2.226938        -1.877954         3.951628
 H         3.575017        -1.730792         2.904068
 H         2.637173         1.063997         1.371840
