19
Iteration:  4774charge 0 multiplicity 1
 C        -0.181129        -0.274556         0.176545
 C         1.271824        -0.556405         0.455369
 O         2.193526        -0.121279        -0.593453
 C         3.073531        -0.856922         0.429185
 C         2.022250        -2.014083         0.651915
 C         1.634168        -2.502316         2.035548
 C         2.607730        -1.679515         3.038651
 O         2.411418        -0.260790         2.820591
 C         2.326657         0.046750         1.528411
 H        -0.750590        -0.762310         0.884709
 H        -0.580913         0.729142         0.098912
 H        -0.374413        -0.761255        -0.760109
 H         4.101533        -0.971958         0.246015
 H         1.834773        -2.554834        -0.233829
 H         0.551973        -2.295320         2.293151
 H         1.837014        -3.581672         2.253032
 H         2.514802        -2.114365         4.064442
 H         3.607370        -1.867852         2.506518
 H         2.457751         1.132461         1.416523
