19
Iteration:  2047charge 0 multiplicity 1
 C        -0.093274        -0.057424         0.356367
 C         1.338085        -0.550025         0.467230
 O         2.178050        -0.242411        -0.676905
 C         3.117085        -0.919525         0.420983
 C         1.970445        -1.898976         0.686152
 C         1.846411        -2.617990         1.993078
 C         2.541270        -1.722988         3.070348
 O         2.143376        -0.306314         2.800603
 C         2.329430         0.074115         1.408219
 H        -0.635580        -0.392885         1.209461
 H        -0.088416         1.009518         0.207203
 H        -0.549960        -0.404217        -0.536592
 H         4.127850        -1.037691         0.127800
 H         1.758375        -2.597563        -0.190507
 H         0.883840        -2.861280         2.371502
 H         2.413254        -3.640091         1.979776
 H         2.132146        -1.668899         4.127033
 H         3.609197        -1.649295         2.936840
 H         2.540647         1.121110         1.145045
