19
Iteration:   525charge 0 multiplicity 1
 C        -0.140172        -0.085427         0.357816
 C         1.278477        -0.500664         0.385009
 O         2.232822        -0.251778        -0.709049
 C         3.056645        -0.960355         0.454922
 C         1.875573        -1.940540         0.661255
 C         1.916202        -2.663850         2.072937
 C         2.454250        -1.646105         3.069699
 O         2.286667        -0.228826         2.779058
 C         2.343911         0.057214         1.416327
 H        -0.735577        -0.496911         1.248037
 H        -0.120810         1.052708         0.466094
 H        -0.687338        -0.362538        -0.588359
 H         4.116124        -1.223612         0.150951
 H         1.768310        -2.629354        -0.179887
 H         0.881907        -2.904628         2.440686
 H         2.473353        -3.570444         2.096165
 H         2.066073        -1.851488         4.062930
 H         3.667432        -1.763907         3.067055
 H         2.770518         1.106603         1.280360
