19
Iteration:  4651
 C        -0.144206        -0.193833         0.428191
 C         1.268308        -0.549503         0.461056
 O         2.260682        -0.263597        -0.676661
 C         3.127076        -0.832705         0.398749
 C         1.987018        -1.991242         0.624099
 C         1.826920        -2.517195         2.010242
 C         2.424852        -1.672402         3.063288
 O         2.231997        -0.283510         2.745369
 C         2.341654         0.131079         1.374899
 H        -0.509855        -0.396107         1.455595
 H        -0.266722         0.854919         0.367080
 H        -0.796331        -0.785499        -0.182793
 H         4.307330        -0.895110         0.384038
 H         1.746598        -2.804930        -0.051927
 H         0.840122        -2.805047         2.435155
 H         2.315866        -3.552901         1.950027
 H         2.126345        -1.783106         4.119720
 H         3.594489        -1.976681         3.060020
 H         2.710831         1.198983         1.212244
