19
Iteration:  2091charge 0 multiplicity 1
 C        -0.198953        -0.103410         0.273030
 C         1.228915        -0.462193         0.447376
 O         2.309333        -0.260814        -0.597298
 C         3.080769        -0.944527         0.426018
 C         1.853764        -1.873173         0.597846
 C         1.856459        -2.633701         1.952874
 C         2.581849        -1.693832         3.124538
 O         2.255096        -0.254672         2.838360
 C         2.347655         0.035795         1.424021
 H        -0.760464        -0.187190         1.170067
 H        -0.439947         0.867331        -0.114276
 H        -0.705865        -0.794754        -0.374909
 H         4.089514        -1.203272         0.277459
 H         1.772107        -2.570186        -0.294863
 H         0.828867        -2.942851         2.219360
 H         2.688812        -3.478209         1.904926
 H         2.212013        -1.890954         4.189029
 H         3.668870        -1.769348         2.963786
 H         2.542987         1.108759         1.440961
