19
Iteration:  2984
 C        -0.149841        -0.303414         0.192836
 C         1.282387        -0.485229         0.469919
 O         2.235513        -0.116343        -0.627537
 C         3.062167        -0.848512         0.387770
 C         1.870303        -1.874356         0.625196
 C         1.841397        -2.469394         2.036588
 C         2.567556        -1.731334         3.083297
 O         2.323980        -0.375866         2.811973
 C         2.329265         0.071217         1.543907
 H        -0.812404        -0.723905         0.927069
 H        -0.602209         0.691555         0.081872
 H        -0.265807        -0.761364        -0.850769
 H         4.102143        -1.061828         0.215964
 H         1.718276        -2.746738         0.059658
 H         0.738588        -2.468434         2.342217
 H         2.161770        -3.679065         1.918181
 H         2.097879        -2.023951         4.074908
 H         3.665805        -2.039300         3.080837
 H         2.542332         1.177496         1.312593
