19
Iteration:  4580
 C        -0.199459        -0.239208         0.089868
 C         1.251317        -0.519320         0.472897
 O         2.210805        -0.273735        -0.652222
 C         2.999197        -0.835352         0.461444
 C         2.007536        -1.911023         0.732279
 C         1.714604        -2.474960         2.145636
 C         2.619509        -1.744250         3.065707
 O         2.469915        -0.269855         2.798069
 C         2.280213         0.091234         1.438601
 H        -1.005454        -0.812633         0.630415
 H        -0.592780         0.835389         0.346561
 H        -0.430763        -0.489564        -0.990314
 H         4.013802        -0.881395         0.247767
 H         1.755818        -2.613733        -0.116929
 H         0.666228        -2.660038         2.212130
 H         2.141272        -3.454620         2.120557
 H         2.515456        -1.946399         4.165044
 H         3.707470        -2.042729         2.839923
 H         2.203910         1.148748         1.522499
