19
Iteration:  4504charge 0 multiplicity 1
 C        -0.110412        -0.087970         0.410377
 C         1.277103        -0.488530         0.428787
 O         2.181939        -0.360608        -0.730370
 C         3.107317        -0.928508         0.474042
 C         1.974769        -1.888203         0.705914
 C         1.978101        -2.597129         2.027236
 C         2.476107        -1.625979         3.039270
 O         2.149390        -0.260569         2.782656
 C         2.320616         0.078738         1.351405
 H        -0.536672        -0.056019         1.416749
 H        -0.297117         0.848623        -0.171528
 H        -0.791602        -0.857088         0.012189
 H         4.169815        -1.115057         0.435402
 H         1.913110        -2.579976        -0.160170
 H         0.970928        -2.921161         2.156667
 H         2.535372        -3.565327         1.980125
 H         2.045225        -1.882312         4.042457
 H         3.618778        -1.745884         3.102076
 H         2.714339         1.053221         1.284185
