19
Iteration:  4958charge 0 multiplicity 1
 C        -0.198713        -0.299839         0.157635
 C         1.247178        -0.610179         0.471556
 O         2.235088        -0.156477        -0.612089
 C         3.054488        -0.724623         0.518145
 C         2.013189        -1.919737         0.584272
 C         1.659843        -2.470197         2.047667
 C         2.557387        -1.747551         3.017795
 O         2.470616        -0.321666         2.826796
 C         2.296594         0.012219         1.521678
 H        -0.627837         0.372202         0.899623
 H        -0.281012         0.318777        -0.813124
 H        -0.867249        -1.174565         0.059348
 H         4.121008        -0.819499         0.337741
 H         1.928418        -2.535605        -0.274084
 H         0.663277        -2.370711         2.332776
 H         1.891867        -3.538837         2.040915
 H         2.319360        -1.687156         4.074041
 H         3.624243        -2.120849         2.866775
 H         2.318101         1.114072         1.405449
