19
Iteration:  3251charge 0 multiplicity 1
 C        -0.165114        -0.080682         0.272093
 C         1.257838        -0.479815         0.464936
 O         2.259858        -0.219867        -0.644581
 C         3.045023        -0.888890         0.362594
 C         1.920414        -1.942533         0.644462
 C         1.982992        -2.717089         2.037012
 C         2.548917        -1.680998         3.059730
 O         2.153439        -0.279200         2.811427
 C         2.293199         0.100519         1.497891
 H        -0.656855        -0.488246         1.191612
 H        -0.098106         0.991542         0.223751
 H        -0.663899        -0.651011        -0.454328
 H         4.168255        -1.074689         0.272899
 H         1.824622        -2.525117        -0.309233
 H         0.987874        -3.085936         2.259535
 H         2.770707        -3.473439         1.756613
 H         2.222688        -2.009645         3.990188
 H         3.588538        -1.764550         3.145041
 H         2.569475         1.131950         1.375147
