19
Iteration:  1382
 C        -0.206940        -0.102112         0.255678
 C         1.219604        -0.544594         0.448383
 O         2.315558        -0.215435        -0.593171
 C         2.996143        -0.969002         0.350221
 C         1.892874        -1.922149         0.693638
 C         1.879037        -2.636220         2.067460
 C         2.565181        -1.622238         3.078066
 O         2.214973        -0.252873         2.751934
 C         2.390250         0.044918         1.422294
 H        -0.756951        -0.711345         1.030220
 H        -0.243796         0.990018         0.461733
 H        -0.417923        -0.397054        -0.745536
 H         4.032882        -1.225230         0.223155
 H         1.739660        -2.585193        -0.140577
 H         0.838648        -2.802784         2.460815
 H         2.505856        -3.620295         1.975785
 H         2.396781        -1.684952         4.225273
 H         3.706258        -1.747041         2.934716
 H         2.804083         1.084192         1.427758
