19
Iteration:  3474charge 0 multiplicity 1
 C        -0.156228        -0.196061         0.424042
 C         1.267519        -0.509745         0.433889
 O         2.259657        -0.223412        -0.724217
 C         3.105790        -0.850239         0.328863
 C         2.033396        -1.868193         0.661300
 C         1.868855        -2.578030         2.043917
 C         2.406356        -1.677180         3.113100
 O         2.186596        -0.353110         2.744178
 C         2.402917         0.091226         1.453329
 H        -0.403959        -0.317056         1.455896
 H        -0.305596         0.827112         0.121204
 H        -0.658130        -0.909653        -0.278900
 H         4.131455        -1.127308         0.213612
 H         1.892893        -2.509485        -0.250006
 H         0.803101        -2.944752         2.184208
 H         2.423809        -3.568262         2.115140
 H         1.670706        -1.782282         4.016160
 H         3.540394        -1.866720         3.267864
 H         2.555249         1.272031         1.510992
