19
Iteration:  1206charge 0 multiplicity 1
 C        -0.075319        -0.018940         0.301972
 C         1.263733        -0.637991         0.464098
 O         2.160901        -0.278044        -0.651694
 C         3.042496        -0.800891         0.395535
 C         2.036871        -1.996866         0.592438
 C         1.844597        -2.547803         2.116070
 C         2.560174        -1.637480         3.106167
 O         2.258161        -0.308433         2.768163
 C         2.235386        -0.005463         1.393888
 H        -0.801073        -0.635321         0.833274
 H         0.177862         1.010690         0.647570
 H        -0.315477         0.113283        -0.776778
 H         4.121925        -0.946279         0.266416
 H         1.999927        -2.817778        -0.101657
 H         0.811177        -2.691672         2.180574
 H         2.105796        -3.636754         2.297968
 H         2.291439        -1.688662         4.222699
 H         3.579538        -1.887711         2.978679
 H         2.356703         1.093581         1.327370
