19
Iteration:  1659charge 0 multiplicity 1
 C        -0.192281        -0.293375         0.327106
 C         1.342460        -0.413920         0.414421
 O         2.260619        -0.249636        -0.648441
 C         3.022479        -0.960003         0.429305
 C         1.903050        -1.822296         0.646468
 C         1.833791        -2.503144         1.919850
 C         2.537046        -1.698739         3.149128
 O         2.204889        -0.305774         2.815803
 C         2.450271         0.093843         1.435595
 H        -0.530016        -0.391883         1.332523
 H        -0.517470         0.682003         0.017228
 H        -0.704347        -0.888660        -0.446248
 H         4.109861        -1.077581         0.073011
 H         1.659996        -2.578515        -0.103122
 H         0.782346        -2.584023         2.378347
 H         2.208998        -3.603883         1.938042
 H         2.159701        -2.045397         4.070232
 H         3.699728        -1.813162         3.114403
 H         2.854313         1.151738         1.269355
