19
Iteration:  1671charge 0 multiplicity 1
 C        -0.169721        -0.204377         0.313487
 C         1.267629        -0.445447         0.522652
 O         2.295833        -0.211961        -0.651580
 C         3.100527        -0.945596         0.349324
 C         1.824495        -1.876836         0.606876
 C         1.874445        -2.571927         2.033076
 C         2.531250        -1.656848         3.051550
 O         2.155472        -0.246527         2.831184
 C         2.446774         0.003601         1.442742
 H        -0.682225        -0.435960         1.245916
 H        -0.464251         0.774145        -0.028370
 H        -0.475354        -1.104401        -0.257057
 H         4.145325        -1.431128         0.256782
 H         1.621475        -2.447633        -0.341848
 H         0.814088        -2.926071         2.306124
 H         2.510913        -3.461458         1.751096
 H         2.204423        -1.800801         4.044416
 H         3.711450        -1.743687         3.083407
 H         2.817904         1.078369         1.414782
