19
Iteration:  2679
 C        -0.154479        -0.293502         0.212167
 C         1.298404        -0.478798         0.546491
 O         2.244144        -0.176495        -0.648273
 C         2.991665        -0.854123         0.416543
 C         1.906162        -1.846501         0.592816
 C         1.819215        -2.552074         2.030467
 C         2.548985        -1.729953         3.021704
 O         2.181777        -0.321527         2.831354
 C         2.525235         0.098865         1.548177
 H        -0.648731        -0.151095         1.139323
 H        -0.219859         0.667880        -0.315505
 H        -0.423469        -1.111877        -0.489328
 H         3.965302        -1.137988         0.099072
 H         1.620597        -2.522270        -0.227438
 H         0.666951        -2.742329         2.178149
 H         2.247950        -3.528128         1.970775
 H         2.217953        -1.939856         4.047385
 H         3.604480        -2.057855         2.963539
 H         2.863064         1.159762         1.474275
