19
Iteration:  3488
 C        -0.217874        -0.249001         0.416621
 C         1.326588        -0.514721         0.388609
 O         2.242734        -0.163893        -0.678913
 C         3.133170        -0.840357         0.482219
 C         2.002007        -1.946328         0.617057
 C         1.863376        -2.590185         1.976266
 C         2.331895        -1.692731         3.110679
 O         2.319819        -0.260863         2.777863
 C         2.388050         0.035029         1.369067
 H        -0.568675        -0.169390         1.500326
 H        -0.523347         0.716451        -0.088590
 H        -0.897030        -0.970016        -0.079088
 H         4.227686        -0.766760         0.185391
 H         1.879009        -2.672107        -0.202332
 H         0.649000        -2.781943         2.185469
 H         2.308500        -3.546778         1.939001
 H         1.830955        -1.784644         4.175685
 H         3.415101        -1.954421         3.430688
 H         2.690877         1.097435         1.222635
