19
Iteration:   354charge 0 multiplicity 1
 C        -0.090695        -0.154251         0.271539
 C         1.329580        -0.423738         0.550989
 O         2.280315        -0.252515        -0.658504
 C         3.002742        -1.001171         0.336381
 C         1.747763        -1.908106         0.660790
 C         1.843268        -2.688427         2.077502
 C         2.536435        -1.638537         3.059765
 O         2.279746        -0.155532         2.798847
 C         2.375293         0.031722         1.443786
 H        -0.651854        -0.818637         0.956335
 H        -0.384378         0.855789         0.520211
 H        -0.290067        -0.505141        -0.771602
 H         4.121015        -1.245008         0.145467
 H         1.459471        -2.646403        -0.146445
 H         0.801714        -2.876190         2.367106
 H         2.412161        -3.662802         1.688899
 H         2.275117        -1.756339         4.107031
 H         3.651747        -1.775777         2.923318
 H         2.643660         1.144993         1.342388
