19
Iteration:  1014
 C        -0.132678        -0.021266         0.328819
 C         1.276957        -0.569749         0.384263
 O         2.163792        -0.212440        -0.687502
 C         3.057564        -0.916300         0.564238
 C         2.029666        -1.991216         0.690802
 C         1.869769        -2.581617         2.102026
 C         2.517949        -1.675950         3.021689
 O         2.309896        -0.291185         2.715173
 C         2.264396         0.025726         1.363482
 H        -0.656299        -0.549901         1.122755
 H        -0.085365         1.072389         0.429092
 H        -0.663627        -0.229207        -0.597484
 H         4.107284        -0.980458         0.317108
 H         1.937371        -2.732612        -0.146192
 H         0.774779        -2.702832         2.449879
 H         2.249754        -3.594609         2.203097
 H         2.123260        -1.789976         4.022250
 H         3.637743        -2.025695         3.183246
 H         2.325565         1.143273         1.287222
