19
Iteration:  2726charge 0 multiplicity 1
 C        -0.206134        -0.060347         0.361320
 C         1.283137        -0.613079         0.416888
 O         2.235865        -0.261772        -0.666429
 C         3.121148        -0.820232         0.422307
 C         2.019659        -1.953744         0.628099
 C         1.897810        -2.621185         1.963987
 C         2.453110        -1.673471         3.075892
 O         2.274904        -0.281138         2.845396
 C         2.236082         0.032050         1.430388
 H        -0.660245        -0.284402         1.248187
 H        -0.016793         0.986946         0.441080
 H        -0.492688        -0.176883        -0.618072
 H         4.175893        -0.668468         0.395112
 H         2.048477        -2.614628        -0.253396
 H         0.816289        -2.836526         2.062182
 H         2.377275        -3.690194         1.890900
 H         1.885908        -1.988110         3.898868
 H         3.485028        -1.836604         3.378294
 H         2.481847         1.100165         1.290350
