19
Iteration:  3796
 C        -0.166486         0.057244         0.208040
 C         1.249760        -0.472727         0.535460
 O         2.182366        -0.376257        -0.637572
 C         3.080638        -0.844805         0.453402
 C         1.996210        -1.985374         0.687491
 C         2.022707        -2.729963         2.096829
 C         2.567170        -1.628603         3.036997
 O         2.103978        -0.307840         2.766763
 C         2.275382         0.111834         1.426281
 H        -0.429947         0.305667         1.200504
 H         0.027046         0.859360        -0.524591
 H        -0.852180        -0.617378        -0.320125
 H         4.134399        -1.111846         0.094619
 H         1.754101        -2.613212        -0.176408
 H         0.968107        -3.276833         2.289663
 H         2.801823        -3.635651         1.943275
 H         2.583845        -1.888359         4.091730
 H         3.641200        -1.526135         2.807241
 H         2.406648         1.143664         1.382520
