19
Iteration:  2484
 C        -0.204271        -0.314649         0.228783
 C         1.261208        -0.446392         0.515801
 O         2.422829        -0.097843        -0.602009
 C         3.070213        -0.933514         0.445920
 C         1.805208        -1.878285         0.604732
 C         1.774760        -2.502146         1.961067
 C         2.511766        -1.694772         2.972761
 O         2.347522        -0.287863         2.839338
 C         2.314463         0.003183         1.519572
 H        -0.712996        -0.327291         1.210414
 H        -0.559449         0.666998        -0.168558
 H        -0.773468        -1.203296        -0.196744
 H         4.130731        -1.024099         0.260253
 H         1.433227        -2.732798        -0.073859
 H         0.894754        -2.832382         2.324987
 H         2.514361        -3.434930         1.945079
 H         2.166919        -1.858559         4.067871
 H         3.513614        -2.163690         2.775492
 H         2.607650         1.080073         1.260911
