19
Iteration:  3548
 C        -0.221152        -0.268866         0.200375
 C         1.274482        -0.424099         0.390942
 O         2.272001        -0.158115        -0.693770
 C         3.051971        -0.824046         0.413567
 C         1.988553        -1.919033         0.679329
 C         1.805612        -2.593456         2.082660
 C         2.486705        -1.751560         3.147509
 O         2.348265        -0.349671         2.799235
 C         2.349049         0.107347         1.487541
 H        -0.652279        -0.006618         1.169334
 H        -0.478392         0.594984        -0.491806
 H        -0.546891        -1.310030        -0.054364
 H         4.086303        -0.949986         0.020276
 H         1.783491        -2.607984        -0.201674
 H         0.672487        -2.443159         2.505004
 H         2.195278        -3.720463         2.024124
 H         2.101834        -1.816407         4.132136
 H         3.543692        -1.980605         3.077311
 H         2.486636         1.241551         1.492042
