19
Iteration:  2073
 C        -0.269539        -0.101076         0.307092
 C         1.299817        -0.451194         0.467222
 O         2.361739        -0.166969        -0.676850
 C         3.012972        -1.032070         0.374535
 C         1.832889        -1.933982         0.652378
 C         1.988810        -2.584502         1.995058
 C         2.524874        -1.665848         3.024457
 O         2.149660        -0.291704         2.858161
 C         2.413484         0.031947         1.483725
 H        -0.686995        -0.365497         1.299771
 H        -0.383566         0.928828        -0.034213
 H        -0.692020        -0.709607        -0.536301
 H         4.133321        -1.289169         0.237732
 H         1.523769        -2.628600        -0.086188
 H         1.065505        -3.001352         2.403403
 H         2.483015        -3.515311         2.013618
 H         2.121354        -1.829246         3.997238
 H         3.622767        -1.610209         3.057176
 H         2.921774         0.992710         1.277509
