19
Iteration:  2457charge 0 multiplicity 1
 C        -0.170030        -0.186849         0.214754
 C         1.270472        -0.491220         0.479754
 O         2.222568        -0.192804        -0.599138
 C         3.048929        -0.879431         0.466539
 C         1.966220        -1.950785         0.582219
 C         1.793420        -2.603956         1.950936
 C         2.587324        -1.724751         3.008936
 O         2.274823        -0.256122         2.853640
 C         2.367106         0.071540         1.545743
 H        -0.681438        -0.148729         1.204901
 H        -0.242556         0.802862        -0.204803
 H        -0.675389        -0.902545        -0.377003
 H         4.136626        -0.944916         0.163209
 H         1.895486        -2.638674        -0.233761
 H         0.650842        -2.526751         2.333887
 H         1.994570        -3.632077         2.059925
 H         2.258793        -1.863809         4.004437
 H         3.638323        -2.047301         2.892644
 H         2.639462         1.062055         1.286890
