19
Iteration:   126charge 0 multiplicity 1
 C        -0.206282        -0.246201         0.386081
 C         1.359261        -0.430040         0.404278
 O         2.383291        -0.232169        -0.709725
 C         3.056392        -0.981044         0.345864
 C         1.712533        -1.863112         0.664846
 C         1.731659        -2.526721         2.082758
 C         2.541192        -1.625759         3.068961
 O         2.330462        -0.242775         2.828142
 C         2.412499         0.023581         1.439699
 H        -0.888779        -1.081106         0.751821
 H        -0.517465         0.792506         0.622172
 H        -0.443173        -0.485456        -0.721495
 H         4.144886        -1.218157         0.132047
 H         1.203643        -2.681480         0.036143
 H         0.780540        -3.147852         2.423356
 H         2.386758        -3.333912         1.854546
 H         2.110855        -1.828611         4.049180
 H         3.533789        -1.855900         3.088344
 H         2.921994         1.028962         1.343119
