19
Iteration:   729
 C        -0.194382        -0.159783         0.240257
 C         1.306441        -0.460388         0.464627
 O         2.180116        -0.218358        -0.682899
 C         3.147802        -1.000878         0.359836
 C         1.922550        -1.937889         0.657363
 C         1.786510        -2.612019         2.068162
 C         2.500577        -1.682280         3.043077
 O         2.350889        -0.236116         2.877500
 C         2.333891         0.086659         1.468722
 H        -0.858412        -0.385616         1.095923
 H        -0.371111         0.925238         0.198799
 H        -0.546892        -0.779505        -0.586692
 H         4.196177        -0.989201         0.119840
 H         1.581402        -2.511588        -0.235026
 H         0.794858        -2.677075         2.347934
 H         2.391712        -3.552562         2.113035
 H         2.276950        -1.968434         4.103879
 H         3.521757        -1.855101         2.907934
 H         2.810279         1.055466         1.382040
