19
Iteration:  3429charge 0 multiplicity 1
 C        -0.176003        -0.046976         0.279014
 C         1.236189        -0.547516         0.441962
 O         2.313286        -0.216796        -0.583952
 C         3.033824        -0.920885         0.506233
 C         1.949632        -2.005433         0.624494
 C         1.953831        -2.612600         2.025528
 C         2.592435        -1.598889         3.047564
 O         2.195147        -0.292825         2.766899
 C         2.204369         0.014471         1.430981
 H        -0.807055        -0.498372         1.003391
 H        -0.203394         1.003764         0.554783
 H        -0.584151        -0.189016        -0.749088
 H         4.044423        -1.062005         0.220487
 H         2.006251        -2.750864        -0.204668
 H         0.859944        -2.898821         2.163072
 H         2.542976        -3.638381         2.026384
 H         2.302636        -1.868707         4.109526
 H         3.716509        -1.677634         2.695215
 H         2.385462         1.136125         1.173286
