19
Iteration:   615
 C        -0.162562        -0.107969         0.191403
 C         1.194505        -0.584628         0.409662
 O         2.205835        -0.247229        -0.696829
 C         3.051334        -0.846976         0.432842
 C         1.922170        -1.935875         0.644577
 C         1.766170        -2.518836         2.074770
 C         2.560610        -1.702621         3.112396
 O         2.451167        -0.280307         2.855155
 C         2.309411        -0.002300         1.449165
 H        -0.656157        -0.413308         1.168361
 H        -0.211043         1.026879         0.089810
 H        -0.677861        -0.823838        -0.508637
 H         4.200182        -0.903958         0.348539
 H         1.911662        -2.666073        -0.186639
 H         0.720193        -2.353580         2.247501
 H         1.971856        -3.569950         2.035153
 H         2.257561        -1.845321         4.151938
 H         3.685490        -1.944162         3.025498
 H         2.522270         1.111845         1.499770
