19
Iteration:   180charge 0 multiplicity 1
 C        -0.025158        -0.035534         0.308401
 C         1.290528        -0.637556         0.467200
 O         2.200782        -0.233583        -0.735504
 C         3.029910        -0.789644         0.319184
 C         1.999830        -1.956540         0.658834
 C         1.749099        -2.609101         2.144135
 C         2.534432        -1.697004         3.115844
 O         2.320458        -0.320777         2.830575
 C         2.260840         0.026196         1.375923
 H        -0.332641         0.275167         1.360731
 H        -0.070012         0.923024        -0.264646
 H        -0.874115        -0.467426        -0.304857
 H         4.149814        -0.927944         0.237538
 H         1.982414        -2.921465         0.022458
 H         0.646837        -2.525817         2.249096
 H         2.001125        -3.601228         2.195807
 H         2.279781        -1.864146         4.170304
 H         3.627817        -1.993699         2.944806
 H         2.110622         1.147598         1.373938
