19
Iteration:  1143
 C        -0.141432        -0.229338         0.196631
 C         1.173625        -0.527607         0.521563
 O         2.336738        -0.210110        -0.589927
 C         3.030777        -0.920904         0.354319
 C         1.811064        -1.884278         0.634243
 C         1.809794        -2.539777         2.074924
 C         2.622332        -1.702360         3.069687
 O         2.315035        -0.267958         2.821172
 C         2.337798         0.095124         1.427263
 H        -0.827654        -0.627085         0.977598
 H        -0.451001         0.869738         0.128677
 H        -0.368643        -0.807780        -0.738585
 H         4.024317        -1.245035         0.150462
 H         1.608299        -2.548737        -0.244596
 H         0.759338        -2.657610         2.469915
 H         2.330310        -3.462657         1.948524
 H         2.302877        -1.840212         4.170982
 H         3.692046        -1.886843         2.907211
 H         2.709639         1.157927         1.374806
