19
Iteration:  1387charge 0 multiplicity 1
 C        -0.207131        -0.088452         0.300113
 C         1.248401        -0.544178         0.470550
 O         2.299295        -0.249101        -0.610200
 C         3.001881        -0.944593         0.395223
 C         1.919501        -1.925348         0.648307
 C         1.878063        -2.624083         2.083265
 C         2.572505        -1.627567         3.085054
 O         2.237486        -0.253908         2.749830
 C         2.365444         0.046374         1.410098
 H        -0.953494        -0.686218         0.826533
 H        -0.180637         0.995285         0.366403
 H        -0.529189        -0.338011        -0.771992
 H         4.073673        -1.170276         0.183697
 H         1.848296        -2.710119        -0.162412
 H         0.823604        -2.752109         2.286606
 H         2.295374        -3.566867         1.997997
 H         2.310909        -1.821465         4.092683
 H         3.721778        -1.728684         3.055695
 H         2.589340         1.110646         1.365836
