19
Iteration:  1559charge 0 multiplicity 1
 C        -0.139706        -0.121423         0.267377
 C         1.299096        -0.404075         0.481272
 O         2.222511        -0.265697        -0.596456
 C         2.989656        -0.972935         0.479693
 C         1.859261        -1.894255         0.677371
 C         1.919059        -2.641244         2.010128
 C         2.582373        -1.640075         3.072448
 O         2.177001        -0.276802         2.743192
 C         2.390639         0.068905         1.405930
 H        -0.735885        -0.589147         1.001863
 H        -0.398719         0.896318        -0.018753
 H        -0.313035        -0.710876        -0.638338
 H         4.015327        -1.228473         0.303922
 H         1.620903        -2.556348        -0.109298
 H         0.962267        -3.091703         2.415140
 H         2.607214        -3.563765         1.908620
 H         2.374700        -1.721076         4.147778
 H         3.769696        -1.769059         2.845188
 H         2.825769         1.068833         1.252952
