19
Iteration:  2504
 C        -0.200101        -0.235595         0.283861
 C         1.298643        -0.473244         0.432906
 O         2.264621        -0.187576        -0.691788
 C         3.082065        -0.854773         0.446353
 C         1.932679        -1.840632         0.633067
 C         1.779614        -2.565290         1.951520
 C         2.528772        -1.738691         3.132207
 O         2.280464        -0.347645         2.849231
 C         2.395514         0.099023         1.465724
 H        -0.681284        -0.462644         1.209747
 H        -0.439241         0.745338        -0.129018
 H        -0.550098        -1.074884        -0.374243
 H         4.112248        -0.990057         0.214338
 H         1.893011        -2.292622        -0.380504
 H         0.690906        -2.534593         2.274249
 H         2.014028        -3.720286         2.085967
 H         2.106663        -2.129903         4.112685
 H         3.675642        -2.060497         3.073720
 H         2.586933         1.188193         1.431086
