19
Iteration:  2310
 C        -0.126296        -0.204013         0.254201
 C         1.245203        -0.633022         0.409177
 O         2.223350        -0.163022        -0.605151
 C         3.075221        -0.877605         0.514424
 C         1.967583        -1.920560         0.610480
 C         1.729930        -2.520975         1.964674
 C         2.542277        -1.692141         3.039353
 O         2.359001        -0.275209         2.855863
 C         2.327019         0.039055         1.461344
 H        -0.584254        -0.048678         1.232664
 H        -0.165449         0.832185        -0.133597
 H        -0.880186        -0.721381        -0.396683
 H         4.140442        -0.884739         0.301227
 H         1.983718        -2.605980        -0.298453
 H         0.572841        -2.656445         2.131359
 H         1.991511        -3.506750         2.043201
 H         2.353098        -2.061368         4.072448
 H         3.569601        -1.978174         2.856105
 H         2.506217         1.143734         1.325365
