19
Iteration:  2264charge 0 multiplicity 1
 C        -0.110254        -0.160722         0.259918
 C         1.369420        -0.453545         0.453604
 O         2.237104        -0.251480        -0.674213
 C         3.052844        -0.862488         0.435968
 C         1.795545        -1.873980         0.690771
 C         1.886285        -2.583134         2.011530
 C         2.576601        -1.723835         2.995265
 O         2.184970        -0.296311         2.856654
 C         2.385364         0.055600         1.494780
 H        -0.827789        -0.176106         1.130232
 H        -0.390748         0.843679        -0.190142
 H        -0.561757        -0.838200        -0.521654
 H         4.035500        -1.160431         0.297970
 H         1.592188        -2.553537        -0.180654
 H         0.927943        -3.071807         2.253254
 H         2.427997        -3.467295         1.898320
 H         2.168575        -1.971106         3.986213
 H         3.636262        -1.891589         3.047284
 H         2.701449         1.069394         1.445717
