19
Iteration:  2122
 C        -0.129046        -0.117075         0.247638
 C         1.272038        -0.604769         0.484803
 O         2.136794        -0.213392        -0.634650
 C         3.129916        -0.792466         0.372999
 C         2.060153        -1.916773         0.673814
 C         1.716947        -2.587521         2.010247
 C         2.533706        -1.790963         3.092817
 O         2.356928        -0.301663         2.831589
 C         2.293831         0.090705         1.424145
 H        -0.764246        -0.063263         1.153550
 H        -0.008356         0.878572        -0.261426
 H        -0.605368        -0.723544        -0.547896
 H         4.165664        -0.882553         0.191883
 H         2.104588        -2.632035        -0.208347
 H         0.550490        -2.617629         2.223669
 H         1.862587        -3.653468         2.249962
 H         2.279288        -1.862985         4.192354
 H         3.626353        -1.974759         2.974095
 H         2.293869         1.186302         1.390047
