19
Iteration:  4321
 C        -0.173821        -0.073591         0.230941
 C         1.276763        -0.534306         0.474821
 O         2.230503        -0.308105        -0.662012
 C         3.025321        -0.971093         0.390042
 C         1.899932        -1.962583         0.667308
 C         1.988207        -2.509525         2.106554
 C         2.610312        -1.587378         3.113965
 O         2.182556        -0.292041         2.834161
 C         2.306879         0.038713         1.365556
 H        -0.872164        -0.475782         0.944188
 H        -0.126015         1.014647         0.302642
 H        -0.395391        -0.430186        -0.754471
 H         4.108288        -1.034426        -0.007600
 H         1.547377        -2.595853        -0.172527
 H         1.032807        -2.888842         2.478775
 H         2.463102        -3.423976         1.992574
 H         2.114139        -1.939457         4.031808
 H         3.724681        -1.734854         3.331739
 H         2.520567         1.094862         1.095169
