19
Iteration:   375charge 0 multiplicity 1
 C        -0.260280        -0.044302         0.229689
 C         1.249287        -0.560416         0.467278
 O         2.206177        -0.328927        -0.648279
 C         3.059305        -0.907436         0.512765
 C         1.965717        -1.958422         0.652698
 C         1.812813        -2.495118         2.067717
 C         2.541627        -1.635452         3.007037
 O         2.339528        -0.315552         2.815639
 C         2.390962         0.059798         1.411023
 H        -0.833782        -0.369061         1.104584
 H        -0.175912         1.028335         0.350181
 H        -0.639945        -0.376874        -0.750027
 H         4.134165        -1.100179         0.177696
 H         1.915247        -2.687712        -0.193349
 H         0.731827        -2.598795         2.327487
 H         2.358097        -3.566503         2.035407
 H         2.189459        -1.839373         4.021567
 H         3.706696        -2.050861         2.935299
 H         2.701338         1.154801         1.321128
