19
Iteration:  4092charge 0 multiplicity 1
 C        -0.190968        -0.340754         0.288551
 C         1.266300        -0.557024         0.517911
 O         2.207305        -0.246172        -0.672439
 C         3.113194        -0.843028         0.386556
 C         2.006304        -1.901443         0.654196
 C         1.714909        -2.507719         2.102644
 C         2.410444        -1.623646         3.081571
 O         2.432606        -0.271459         2.765642
 C         2.369326         0.102200         1.408061
 H        -0.785487        -1.016507         0.911000
 H        -0.375100         0.745318         0.588704
 H        -0.300266        -0.604644        -0.801553
 H         4.172156        -0.850330        -0.051352
 H         1.826537        -2.729689        -0.073857
 H         0.604323        -2.374058         2.132790
 H         2.100769        -3.529994         2.303279
 H         2.287573        -1.703744         4.149972
 H         3.395250        -1.988932         3.015023
 H         2.499266         1.182725         1.245354
