19
Iteration:   871
 C        -0.216841        -0.093779         0.371045
 C         1.314336        -0.501824         0.461481
 O         2.252558        -0.268955        -0.691476
 C         3.087812        -0.926448         0.464342
 C         1.926082        -1.972025         0.635757
 C         1.896765        -2.608220         2.007457
 C         2.505083        -1.659888         3.046487
 O         2.199450        -0.293517         2.792331
 C         2.416758         0.116347         1.403542
 H        -0.594501         0.061564         1.445130
 H        -0.371606         0.929166        -0.151271
 H        -0.763082        -0.933536        -0.130222
 H         4.078574        -0.958333         0.051952
 H         1.576826        -2.705596        -0.160164
 H         0.777098        -2.730529         2.217637
 H         2.387534        -3.573198         2.077014
 H         1.984812        -2.010989         3.986770
 H         3.668198        -1.697862         3.295169
 H         2.798168         1.156451         1.254292
