19
Iteration:  3236
 C        -0.121016        -0.110591         0.244215
 C         1.258363        -0.498954         0.508407
 O         2.132361        -0.196275        -0.627732
 C         3.055558        -0.839691         0.507212
 C         1.996252        -1.940752         0.664823
 C         1.953537        -2.615801         1.979087
 C         2.544143        -1.677890         3.032321
 O         2.190295        -0.345275         2.809711
 C         2.360183         0.024394         1.422276
 H        -0.861622        -0.324482         0.982142
 H        -0.281455         0.959216        -0.014589
 H        -0.350456        -0.525354        -0.793116
 H         4.069456        -0.875782         0.157278
 H         1.763940        -2.617005        -0.119746
 H         0.960194        -2.964983         2.243903
 H         2.440869        -3.647689         2.166897
 H         2.301110        -1.859514         4.151918
 H         3.621218        -1.906943         2.856542
 H         2.537534         1.127834         1.345956
