19
Iteration:    39charge 0 multiplicity 1
 C        -0.237177        -0.106527         0.259126
 C         1.230859        -0.435072         0.526659
 O         2.322283        -0.317670        -0.599637
 C         3.032890        -1.001562         0.369563
 C         1.817827        -1.914110         0.655829
 C         1.833585        -2.508779         2.059842
 C         2.589757        -1.591845         3.049835
 O         2.240600        -0.274221         2.765273
 C         2.491025        -0.015608         1.429861
 H        -0.805858        -0.971646         0.745649
 H        -0.603350         0.872499         0.634968
 H        -0.372364        -0.071516        -0.866334
 H         4.052104        -1.428178         0.216464
 H         1.425672        -2.556759        -0.199938
 H         0.686163        -2.646113         2.446395
 H         2.318826        -3.509307         2.037891
 H         2.322711        -1.790883         4.133723
 H         3.813610        -1.746583         2.911009
 H         2.984930         0.990652         1.267661
