19
Iteration:  3638
 C        -0.182734        -0.074544         0.251218
 C         1.248485        -0.485294         0.448984
 O         2.234644        -0.312477        -0.690678
 C         3.037977        -0.908453         0.405611
 C         1.952084        -1.923821         0.692004
 C         1.981910        -2.604575         2.050622
 C         2.506951        -1.722835         3.080150
 O         2.206964        -0.234871         2.847037
 C         2.390504         0.065428         1.426668
 H        -0.863282        -0.785430         0.763245
 H        -0.529309         0.865570         0.666207
 H        -0.528872        -0.039972        -0.804093
 H         4.065082        -0.956778         0.230583
 H         1.778825        -2.591531        -0.151348
 H         0.866125        -3.105914         2.237717
 H         2.605599        -3.623807         1.903593
 H         2.087001        -1.956493         4.057998
 H         3.561746        -1.625046         3.102954
 H         2.602438         1.214865         1.413744
