19
Iteration:   605
 C        -0.186193        -0.162785         0.203835
 C         1.228987        -0.622447         0.466061
 O         2.256421        -0.264246        -0.652378
 C         2.989628        -0.826243         0.438504
 C         1.997626        -1.953464         0.659803
 C         1.707752        -2.433770         2.049726
 C         2.607352        -1.746156         3.106142
 O         2.460963        -0.313029         2.824295
 C         2.259189         0.099641         1.424710
 H        -0.830103        -0.236624         1.117681
 H        -0.072112         0.982550         0.108235
 H        -0.768445        -0.393909        -0.770730
 H         4.030666        -1.064907         0.088794
 H         1.908315        -2.714011        -0.137867
 H         0.667092        -2.421191         2.323492
 H         1.974283        -3.514417         2.088757
 H         2.204020        -1.947650         4.128883
 H         3.754147        -2.143123         3.084656
 H         2.342272         1.218126         1.218928
