19
Iteration:  4100charge 0 multiplicity 1
 C        -0.272128        -0.297637         0.310981
 C         1.265947        -0.487532         0.452278
 O         2.222280        -0.285709        -0.743036
 C         3.105586        -0.867117         0.400867
 C         2.066939        -1.933989         0.715336
 C         1.735224        -2.555250         2.096813
 C         2.463665        -1.665821         3.071060
 O         2.387710        -0.220199         2.790568
 C         2.365798         0.107855         1.425318
 H        -0.852664        -1.029059         0.897391
 H        -0.561877         0.791713         0.486277
 H        -0.446075        -0.290198        -0.805910
 H         4.236104        -0.826520         0.335765
 H         1.871217        -2.655011        -0.105743
 H         0.618664        -2.446999         2.428484
 H         2.089140        -3.575393         2.065122
 H         2.260286        -1.764718         4.201846
 H         3.528252        -2.027833         2.975354
 H         2.662129         1.102664         1.270563
