19
Iteration:  2652
 C        -0.200155        -0.236869         0.191495
 C         1.282825        -0.503754         0.463536
 O         2.300273        -0.190299        -0.625218
 C         3.075544        -0.804126         0.498572
 C         1.958485        -1.880015         0.614221
 C         1.714366        -2.535401         2.056656
 C         2.609237        -1.769370         2.978047
 O         2.329189        -0.325425         2.866378
 C         2.262388         0.064001         1.491925
 H        -0.684824        -0.008708         1.223268
 H        -0.258681         0.692397        -0.426813
 H        -0.592731        -1.114463        -0.374296
 H         4.180204        -0.862799         0.177859
 H         1.692282        -2.552685        -0.225207
 H         0.678347        -2.513263         2.214010
 H         2.053281        -3.600826         1.988529
 H         2.321488        -1.949082         4.050309
 H         3.698772        -2.195431         2.820514
 H         2.345670         1.134693         1.350900
