19
Iteration:   428charge 0 multiplicity 1
 C        -0.266062        -0.183707         0.243022
 C         1.271138        -0.464876         0.481072
 O         2.273230        -0.270887        -0.610153
 C         3.062655        -0.897400         0.438178
 C         1.941403        -1.913619         0.639145
 C         1.741604        -2.532237         2.065775
 C         2.556477        -1.668223         3.016701
 O         2.338445        -0.250802         2.806555
 C         2.434296        -0.006754         1.464597
 H        -0.898726         0.056473         1.149313
 H        -0.372181         0.636321        -0.457756
 H        -0.637167        -1.161296        -0.043918
 H         4.059553        -1.177353        -0.025544
 H         1.594209        -2.474621        -0.218287
 H         0.678140        -2.441807         2.210164
 H         2.121668        -3.603682         2.040374
 H         2.347673        -1.837229         4.043486
 H         3.606171        -1.929009         2.821249
 H         2.754219         1.071978         1.346530
