19
Iteration:  1112
 C        -0.135399        -0.148779         0.258818
 C         1.268011        -0.653714         0.332854
 O         2.089257        -0.261734        -0.640590
 C         3.114562        -0.794840         0.506600
 C         2.026637        -1.943923         0.610831
 C         1.708279        -2.461831         2.028458
 C         2.527031        -1.727816         3.071290
 O         2.366993        -0.291883         2.868193
 C         2.366475         0.095469         1.428078
 H        -0.485586        -0.329985         1.269414
 H        -0.076445         0.805904        -0.220420
 H        -0.817706        -0.785354        -0.281462
 H         4.164923        -0.827489         0.239015
 H         2.248250        -2.708155        -0.186627
 H         0.610915        -2.532520         2.403900
 H         2.008291        -3.486564         2.146314
 H         2.202118        -2.012053         4.064144
 H         3.536363        -1.986584         2.988558
 H         2.731809         1.135439         1.276881
