19
Iteration:  1279charge 0 multiplicity 1
 C        -0.245932        -0.249171         0.266058
 C         1.266645        -0.442484         0.522983
 O         2.251090        -0.231133        -0.669550
 C         3.044699        -0.921557         0.371950
 C         1.987651        -1.911532         0.622148
 C         1.740648        -2.557694         2.011217
 C         2.477430        -1.653662         3.113860
 O         2.311193        -0.245570         2.827259
 C         2.502721         0.049554         1.451189
 H        -0.640385        -0.175008         1.300012
 H        -0.448563         0.584090        -0.391357
 H        -0.566673        -1.211990        -0.149819
 H         4.127092        -1.085820         0.065781
 H         1.820420        -2.501305        -0.345560
 H         0.614614        -2.742910         2.238574
 H         2.154835        -3.588723         2.044900
 H         2.153622        -1.829631         4.095173
 H         3.679555        -1.882816         2.979545
 H         2.757556         1.094926         1.512486
