19
Iteration:  2200charge 0 multiplicity 1
 C        -0.166383        -0.149773         0.322630
 C         1.269092        -0.505075         0.457063
 O         2.251886        -0.245658        -0.687761
 C         3.094825        -0.918644         0.396088
 C         1.995696        -1.877803         0.660276
 C         1.787626        -2.576802         1.950727
 C         2.560754        -1.723894         3.106034
 O         2.216415        -0.268919         2.812685
 C         2.349345         0.062307         1.476454
 H        -0.748304        -0.654576         1.072926
 H        -0.214936         0.901234         0.488396
 H        -0.420873        -0.534483        -0.661006
 H         4.088359        -1.072721         0.106446
 H         1.738792        -2.523486        -0.228428
 H         0.648681        -2.570109         2.235930
 H         2.170044        -3.558666         2.092146
 H         2.260007        -1.987361         4.153299
 H         3.656760        -1.833133         3.116672
 H         2.570064         1.132685         1.376191
