19
Iteration:   754
 C        -0.191685        -0.278266         0.174770
 C         1.216788        -0.478418         0.467565
 O         2.345393        -0.190416        -0.627461
 C         2.953895        -0.955223         0.429470
 C         1.753433        -1.826744         0.691528
 C         1.801978        -2.463946         2.012534
 C         2.598900        -1.667449         3.086231
 O         2.362675        -0.289100         2.806011
 C         2.422368        -0.022353         1.457739
 H        -0.764267        -0.845869         0.933368
 H        -0.535043         0.697979         0.444159
 H        -0.445563        -0.751997        -0.731627
 H         4.051602        -1.189582         0.144638
 H         1.523785        -2.364360        -0.237047
 H         0.781477        -2.427982         2.501953
 H         2.371198        -3.506098         1.935967
 H         2.285479        -1.962649         4.066817
 H         3.754545        -1.875027         3.028863
 H         2.914689         1.000798         1.403354
