19
Iteration:  3789
 C        -0.135634         0.039316         0.199578
 C         1.200627        -0.501916         0.485010
 O         2.163485        -0.358842        -0.627667
 C         3.042314        -0.844983         0.440512
 C         2.001876        -1.959413         0.739342
 C         2.014495        -2.737091         2.095466
 C         2.607035        -1.652657         2.992110
 O         2.083524        -0.328699         2.772303
 C         2.357099         0.117912         1.417630
 H        -0.625371         0.446635         1.128709
 H         0.036279         0.843462        -0.571667
 H        -0.917077        -0.623347        -0.281917
 H         4.122090        -0.944668         0.405359
 H         1.767072        -2.646145        -0.101105
 H         1.026447        -3.070620         2.308245
 H         2.765190        -3.477778         1.953008
 H         2.520216        -1.733829         4.084425
 H         3.747804        -1.792049         3.069046
 H         2.472863         1.245663         1.441106
