19
Iteration:  2195charge 0 multiplicity 1
 C        -0.192243        -0.178857         0.319023
 C         1.274102        -0.514044         0.498078
 O         2.269529        -0.242634        -0.678407
 C         3.105404        -0.922286         0.425163
 C         1.969637        -1.866892         0.651985
 C         1.804396        -2.555231         1.977009
 C         2.506508        -1.736372         3.038675
 O         2.220564        -0.265819         2.843317
 C         2.415615         0.090149         1.424293
 H        -0.898977        -0.668815         1.072191
 H        -0.405963         0.944351         0.442245
 H        -0.470691        -0.595380        -0.681662
 H         4.154878        -1.145446         0.013451
 H         1.714701        -2.521758        -0.165969
 H         0.795473        -2.682257         2.285886
 H         2.064567        -3.675399         1.953273
 H         2.308739        -1.933430         4.084878
 H         3.613736        -1.766698         3.072156
 H         2.616022         1.173718         1.459026
