19
Iteration:    47
 C        -0.263700        -0.041482         0.242879
 C         1.238350        -0.498066         0.521506
 O         2.292009        -0.277860        -0.665111
 C         3.089830        -1.010661         0.447440
 C         1.860199        -1.922975         0.718698
 C         1.857301        -2.501037         2.114327
 C         2.582310        -1.686428         3.044969
 O         2.269541        -0.282793         2.751936
 C         2.439040         0.019132         1.344222
 H        -0.895468        -0.903819         0.689602
 H        -0.579370         0.891199         0.780976
 H        -0.453417         0.019654        -0.795436
 H         4.148583        -1.244895         0.323831
 H         1.556723        -2.600295        -0.105660
 H         0.744266        -2.481174         2.370476
 H         2.155729        -3.507489         2.150344
 H         2.224158        -1.932133         3.993470
 H         3.667514        -1.802342         3.061059
 H         2.743863         1.018085         1.116882
