19
Iteration:  3779charge 0 multiplicity 1
 C        -0.151075         0.020744         0.187899
 C         1.247242        -0.555160         0.451590
 O         2.178495        -0.313340        -0.669945
 C         2.995734        -0.857385         0.470921
 C         1.933144        -1.924085         0.778055
 C         2.035374        -2.635408         2.055820
 C         2.651665        -1.690474         3.074906
 O         2.129957        -0.356373         2.767528
 C         2.307681         0.072070         1.442187
 H        -0.704389         0.579688         1.001973
 H         0.008620         0.852314        -0.533347
 H        -0.762042        -0.818144        -0.213701
 H         4.049293        -0.844472         0.253076
 H         1.919906        -2.568786        -0.120475
 H         1.134198        -2.919171         2.448448
 H         2.515983        -3.543169         2.043195
 H         2.106182        -1.911808         4.000820
 H         3.779638        -1.657130         2.878602
 H         2.703642         1.162817         1.330430
