19
Iteration:  1493charge 0 multiplicity 1
 C        -0.149770        -0.164979         0.306445
 C         1.272426        -0.533670         0.492326
 O         2.235976        -0.289861        -0.629923
 C         3.060637        -0.856796         0.421051
 C         1.959654        -1.931664         0.629213
 C         1.802400        -2.536226         2.050072
 C         2.547341        -1.661420         3.065002
 O         2.272206        -0.286427         2.769907
 C         2.370159         0.078409         1.426985
 H        -0.742541         0.028929         1.176630
 H        -0.377072         0.713812        -0.263828
 H        -0.627449        -0.936431        -0.282716
 H         4.065451        -1.069574         0.182792
 H         1.882047        -2.574818        -0.202826
 H         0.710708        -2.681932         2.171862
 H         2.235831        -3.590405         1.962775
 H         2.146814        -1.917582         4.048746
 H         3.561769        -1.831698         3.030156
 H         2.594923         1.145579         1.429896
