19
Iteration:  2221
 C        -0.087638        -0.007225         0.306496
 C         1.231226        -0.658203         0.365557
 O         2.238453        -0.195593        -0.678639
 C         3.084623        -0.805515         0.428579
 C         1.980536        -2.001456         0.595142
 C         1.863161        -2.560118         2.080336
 C         2.494947        -1.699283         3.066840
 O         2.257390        -0.328038         2.844268
 C         2.286983         0.003891         1.409891
 H        -0.684286        -0.406803         1.161429
 H         0.003825         1.067103         0.546491
 H        -0.627956        -0.342474        -0.609392
 H         4.082441        -0.756888         0.167668
 H         1.882254        -2.821915        -0.178251
 H         0.780791        -2.688686         2.518386
 H         2.232047        -3.523285         2.177625
 H         2.300543        -1.917590         4.119559
 H         3.542579        -1.787514         3.160914
 H         2.241481         1.076665         1.429414
