19
Iteration:  4888charge 0 multiplicity 1
 C        -0.100516        -0.082793         0.322192
 C         1.266646        -0.486044         0.451705
 O         2.243758        -0.244459        -0.689962
 C         3.058838        -0.912148         0.452908
 C         1.880855        -1.921493         0.650312
 C         1.936338        -2.667856         2.012871
 C         2.547010        -1.682759         3.091246
 O         2.190849        -0.277691         2.753721
 C         2.293265         0.066736         1.426360
 H        -0.668685        -0.600686         1.148609
 H        -0.307241         0.963954         0.490678
 H        -0.392384        -0.435017        -0.680741
 H         4.174388        -1.083551         0.462979
 H         1.712607        -2.536559        -0.300777
 H         0.957565        -3.176895         2.411827
 H         2.589488        -3.556016         2.082973
 H         2.064552        -1.798034         4.028217
 H         3.706334        -1.529680         3.191267
 H         2.548301         1.132435         1.431790
