19
Iteration:  1282
 C        -0.271784        -0.237656         0.272412
 C         1.278188        -0.475182         0.527954
 O         2.254189        -0.247863        -0.664940
 C         3.060297        -0.881212         0.382341
 C         1.983037        -1.914993         0.595074
 C         1.737389        -2.532813         2.009723
 C         2.496333        -1.646427         3.109047
 O         2.321461        -0.251417         2.839360
 C         2.463521         0.022478         1.448374
 H        -0.640555        -0.048569         1.261816
 H        -0.373869         0.622670        -0.399635
 H        -0.504056        -1.192884        -0.185871
 H         4.069314        -1.090242        -0.037825
 H         1.887478        -2.605819        -0.251592
 H         0.622643        -2.625973         2.176577
 H         2.192874        -3.601745         2.027568
 H         2.088935        -1.867833         4.148663
 H         3.641758        -1.890992         3.018022
 H         2.775701         1.073418         1.499332
