19
Iteration:  3069charge 0 multiplicity 1
 C        -0.190680        -0.131162         0.298912
 C         1.312680        -0.472121         0.515954
 O         2.245373        -0.191751        -0.632871
 C         3.109015        -0.872106         0.309056
 C         1.989454        -1.891926         0.620581
 C         1.946045        -2.595004         2.050735
 C         2.517140        -1.719527         3.078210
 O         2.051150        -0.348522         2.787920
 C         2.403557         0.018814         1.460747
 H        -0.622757        -0.265864         1.316799
 H        -0.336718         0.932606         0.008695
 H        -0.745947        -0.752409        -0.440154
 H         4.137143        -1.151756         0.039226
 H         1.682743        -2.652381        -0.138365
 H         0.928771        -2.956686         2.050949
 H         2.384139        -3.593536         1.940504
 H         2.310384        -1.649255         4.215024
 H         3.730277        -1.637369         3.170506
 H         2.668644         1.116334         1.529186
