19
Iteration:  1060charge 0 multiplicity 1
 C        -0.122753        -0.274123         0.385548
 C         1.336008        -0.443523         0.414704
 O         2.220544        -0.216676        -0.647671
 C         3.036121        -0.983635         0.367294
 C         1.883785        -1.838157         0.691932
 C         1.845171        -2.602579         1.947383
 C         2.439289        -1.608465         3.031240
 O         2.219215        -0.233905         2.785320
 C         2.452688         0.056871         1.486517
 H        -0.394543        -0.121199         1.487562
 H        -0.200646         0.648758        -0.174905
 H        -0.678321        -1.082459        -0.122177
 H         4.070754        -1.423124         0.217867
 H         1.703770        -2.611600        -0.075014
 H         0.839740        -2.906450         2.196494
 H         2.423048        -3.585367         1.880256
 H         2.068619        -1.772902         3.996288
 H         3.626200        -1.818034         3.223874
 H         2.989092         1.002709         1.452448
