19
Iteration:  3785
 C        -0.133552         0.032087         0.199449
 C         1.207843        -0.536818         0.454415
 O         2.164085        -0.339350        -0.638796
 C         3.009462        -0.855994         0.443174
 C         1.980479        -1.941753         0.776115
 C         2.024215        -2.690830         2.071188
 C         2.644815        -1.673302         3.011992
 O         2.090057        -0.341975         2.773761
 C         2.361565         0.115797         1.425650
 H        -0.706151         0.546383         0.947122
 H         0.016209         0.886493        -0.484230
 H        -0.851557        -0.701257        -0.198833
 H         4.143036        -0.833088         0.447368
 H         1.842721        -2.599495        -0.089815
 H         0.930330        -3.030188         2.412946
 H         2.806350        -3.598162         1.999955
 H         2.244269        -1.713323         4.035806
 H         3.721816        -1.806992         2.964700
 H         2.571646         1.141057         1.406716
