19
Iteration:  3999charge 0 multiplicity 1
 C        -0.203692        -0.053077         0.312145
 C         1.266887        -0.619210         0.448273
 O         2.232036        -0.298305        -0.627806
 C         3.121008        -0.923280         0.373535
 C         1.961644        -2.022858         0.687961
 C         1.969046        -2.521051         2.035574
 C         2.567943        -1.584321         3.040692
 O         2.105604        -0.242811         2.812429
 C         2.318793        -0.029484         1.428317
 H        -0.588340         0.369897         1.305878
 H         0.045600         0.868294        -0.274168
 H        -0.970904        -0.708040        -0.177037
 H         4.126554        -0.869156        -0.001082
 H         1.806678        -2.598379        -0.217688
 H         0.835457        -2.576035         2.261158
 H         2.575819        -3.462161         2.172077
 H         2.437854        -1.988048         4.067748
 H         3.600251        -1.627127         2.884949
 H         2.634847         1.069227         1.292844
