19
Iteration:  2678charge 0 multiplicity 1
 C        -0.158078        -0.292275         0.206640
 C         1.299948        -0.479773         0.546082
 O         2.239291        -0.177936        -0.648120
 C         2.990869        -0.852076         0.415279
 C         1.905479        -1.848604         0.596041
 C         1.818622        -2.551632         2.032298
 C         2.544013        -1.734287         3.016488
 O         2.182605        -0.323467         2.832788
 C         2.531342         0.105207         1.553716
 H        -0.657736        -0.147116         1.180311
 H        -0.223086         0.676818        -0.336647
 H        -0.422078        -1.148191        -0.501513
 H         4.000095        -1.155202         0.112980
 H         1.652123        -2.519189        -0.250718
 H         0.653983        -2.725151         2.154149
 H         2.225310        -3.502592         1.979744
 H         2.228255        -1.936143         4.081323
 H         3.661480        -2.038430         2.943359
 H         2.875438         1.153563         1.473774
