19
Iteration:   873
 C        -0.217769        -0.076074         0.373273
 C         1.292689        -0.509602         0.453897
 O         2.249928        -0.259606        -0.697720
 C         3.113776        -0.900039         0.452957
 C         1.932615        -1.980176         0.637368
 C         1.882029        -2.605600         2.028065
 C         2.492308        -1.671079         3.048916
 O         2.202923        -0.293502         2.792759
 C         2.415753         0.102856         1.401399
 H        -0.632095         0.007053         1.464076
 H        -0.372018         0.909398        -0.209135
 H        -0.784090        -0.917830        -0.108255
 H         4.158872        -0.989960         0.025584
 H         1.683700        -2.736467        -0.162538
 H         0.843968        -2.746534         2.298461
 H         2.361585        -3.659987         2.068861
 H         2.017261        -1.949267         4.010585
 H         3.691658        -1.748399         3.268675
 H         2.781372         1.147537         1.253649
