19
Iteration:  3613
 C        -0.128003        -0.037000         0.270121
 C         1.260382        -0.546379         0.404263
 O         2.251534        -0.271771        -0.660750
 C         3.028162        -0.875245         0.405057
 C         1.893524        -1.898617         0.669935
 C         1.966290        -2.578386         2.115720
 C         2.657094        -1.674669         3.125351
 O         2.112280        -0.363687         2.762488
 C         2.316137        -0.004438         1.446753
 H        -0.979439        -0.419069         0.834302
 H        -0.264529         1.100761         0.276076
 H        -0.369829        -0.064871        -0.862130
 H         4.141459        -0.924065         0.278393
 H         1.811780        -2.654007        -0.185930
 H         0.880375        -2.970309         2.343434
 H         2.454753        -3.562293         2.024256
 H         2.437133        -1.798167         4.152681
 H         3.766630        -1.490345         2.983833
 H         2.305897         1.107424         1.466250
