19
Iteration:  1703
 C        -0.156504         0.025260         0.289012
 C         1.248800        -0.608309         0.428324
 O         2.192313        -0.281823        -0.622553
 C         3.063378        -0.878069         0.485449
 C         1.977266        -1.947064         0.616538
 C         1.917857        -2.627591         2.038779
 C         2.584762        -1.687952         3.063423
 O         2.207713        -0.242484         2.801906
 C         2.284967         0.013540         1.420495
 H        -0.421323        -0.122505         1.289329
 H        -0.070389         1.016863        -0.074165
 H        -0.719221        -0.378185        -0.554819
 H         4.192404        -1.075041         0.250634
 H         2.011809        -2.615418        -0.256616
 H         0.837232        -2.965610         2.241443
 H         2.400163        -3.701353         1.979946
 H         2.134661        -1.818551         3.995940
 H         3.687182        -1.780038         3.096789
 H         2.427463         1.137955         1.244882
