19
Iteration:  3142
 C        -0.121346        -0.265166         0.280133
 C         1.334202        -0.541684         0.431005
 O         2.185279        -0.176932        -0.643359
 C         3.077953        -0.836236         0.378343
 C         1.961415        -1.867411         0.622807
 C         1.840802        -2.522053         1.970817
 C         2.465739        -1.731843         3.108906
 O         2.270407        -0.304449         2.885638
 C         2.378305         0.044349         1.462090
 H        -0.626913        -0.523392         1.282058
 H        -0.397730         0.807489         0.171891
 H        -0.633362        -0.706108        -0.585398
 H         4.114134        -0.893777        -0.089090
 H         1.849179        -2.572965        -0.247376
 H         0.738291        -2.772951         2.006387
 H         2.171364        -3.551259         1.986793
 H         2.102738        -1.946722         4.064689
 H         3.543354        -1.788054         3.175530
 H         2.538303         1.081970         1.496678
