19
Iteration:   751charge 0 multiplicity 1
 C        -0.201312        -0.265548         0.187097
 C         1.229517        -0.467333         0.452596
 O         2.356829        -0.195754        -0.639670
 C         2.933488        -0.949578         0.399027
 C         1.758497        -1.846077         0.676671
 C         1.792750        -2.484231         2.014669
 C         2.617508        -1.668932         3.100882
 O         2.354711        -0.277720         2.834012
 C         2.440395        -0.010065         1.465706
 H        -0.715543        -0.838905         0.999689
 H        -0.603904         0.738972         0.416544
 H        -0.352427        -0.808406        -0.764174
 H         3.928196        -1.243230         0.098912
 H         1.544751        -2.445853        -0.249425
 H         0.863323        -2.500610         2.442498
 H         2.362951        -3.435056         1.948598
 H         2.284726        -1.941547         4.136525
 H         3.608274        -1.891322         3.030416
 H         2.781724         1.037692         1.456515
