19
Iteration:  2464
 C        -0.179960        -0.235021         0.248483
 C         1.260961        -0.487931         0.438376
 O         2.269080        -0.151975        -0.531993
 C         3.024829        -0.904206         0.489691
 C         1.930275        -1.915213         0.527322
 C         1.755983        -2.643270         1.965925
 C         2.582200        -1.693623         2.994371
 O         2.300034        -0.229060         2.871733
 C         2.405085         0.049501         1.487062
 H        -0.869701        -0.161492         1.123472
 H        -0.339490         0.765342        -0.265011
 H        -0.728599        -1.029541        -0.359698
 H         4.064525        -1.275764         0.290121
 H         1.870950        -2.693616        -0.296905
 H         0.682078        -2.581583         2.255740
 H         2.171082        -3.677300         1.922333
 H         2.295124        -1.771535         4.074044
 H         3.647548        -1.890191         2.874598
 H         2.684465         1.164499         1.322249
