19
Iteration:  4169charge 0 multiplicity 1
 C        -0.161542         0.001889         0.183962
 C         1.225972        -0.513648         0.486318
 O         2.165877        -0.364266        -0.701209
 C         3.040608        -0.935439         0.420847
 C         1.958560        -1.957319         0.737532
 C         1.982118        -2.588747         2.105383
 C         2.681274        -1.599561         3.076181
 O         2.168991        -0.298143         2.779765
 C         2.264894         0.033621         1.454121
 H        -0.857593        -0.214971         1.045519
 H         0.016734         1.131210        -0.020906
 H        -0.469293        -0.389450        -0.818757
 H         4.154522        -0.999969         0.143751
 H         1.662528        -2.729810        -0.017716
 H         0.905972        -2.849491         2.348319
 H         2.679897        -3.464027         2.218724
 H         2.262645        -1.854009         4.050204
 H         3.778688        -1.653440         3.134268
 H         2.529849         1.115123         1.272302
