19
Iteration:  2051charge 0 multiplicity 1
 C        -0.083031        -0.068359         0.343117
 C         1.342685        -0.507423         0.489015
 O         2.207095        -0.242113        -0.647136
 C         3.079606        -0.914033         0.420346
 C         1.925403        -1.911769         0.636920
 C         1.865224        -2.598622         2.032659
 C         2.550838        -1.677504         3.092937
 O         2.128691        -0.320212         2.775877
 C         2.341088         0.031478         1.400287
 H        -0.519810        -0.440201         1.283753
 H        -0.113801         1.009378         0.206348
 H        -0.503572        -0.527906        -0.595177
 H         4.115435        -1.062118        -0.006758
 H         1.663900        -2.473286        -0.217568
 H         0.906743        -3.076622         2.301216
 H         2.364426        -3.512138         1.871684
 H         2.207632        -1.769369         4.118279
 H         3.671814        -1.710224         3.005624
 H         2.499973         1.102004         1.176338
