19
Iteration:  4184charge 0 multiplicity 1
 C        -0.148371        -0.027470         0.189587
 C         1.230698        -0.590564         0.447631
 O         2.230154        -0.386491        -0.764004
 C         2.993213        -0.828973         0.427887
 C         1.874270        -1.898461         0.716852
 C         1.994016        -2.567290         2.122955
 C         2.568162        -1.690028         3.152391
 O         2.270238        -0.291297         2.869335
 C         2.287375         0.091542         1.329213
 H        -0.772273        -0.037255         1.107609
 H        -0.192135         0.982765        -0.099747
 H        -0.679647        -0.729626        -0.428082
 H         4.001871        -1.064015         0.429871
 H         1.895622        -2.558214        -0.131034
 H         1.033806        -2.873015         2.511832
 H         2.526080        -3.506080         1.736885
 H         2.497937        -1.873167         4.220462
 H         3.674835        -1.782970         3.109883
 H         2.344527         1.205352         1.400423
