19
Iteration:  1527
 C        -0.132312         0.048326         0.309000
 C         1.229774        -0.629610         0.364901
 O         2.262731        -0.302028        -0.681659
 C         3.014604        -0.800672         0.368014
 C         2.034548        -2.034487         0.609043
 C         1.831675        -2.582034         2.105212
 C         2.608748        -1.659027         3.097386
 O         2.229492        -0.301304         2.849436
 C         2.205832         0.024278         1.467233
 H        -0.626341        -0.079398         1.251488
 H         0.100988         1.061897        -0.002833
 H        -0.629794        -0.578545        -0.431099
 H         4.086229        -0.907684         0.178699
 H         2.055550        -2.773737        -0.180469
 H         0.755250        -2.730903         2.398448
 H         2.403211        -3.560116         2.170593
 H         2.520540        -1.777116         4.151421
 H         3.627073        -1.698943         2.900916
 H         2.244964         1.080003         1.212930
