19
Iteration:   555
 C        -0.212874        -0.218767         0.256589
 C         1.264274        -0.449722         0.518236
 O         2.308979        -0.234414        -0.695002
 C         3.103340        -1.030626         0.369880
 C         1.758807        -1.844884         0.681834
 C         1.870245        -2.512763         2.060763
 C         2.558660        -1.626165         3.000373
 O         2.304313        -0.263102         2.837386
 C         2.400954         0.017558         1.484371
 H        -0.722909        -0.866502         0.940117
 H        -0.584597         0.773947         0.310264
 H        -0.465606        -0.409242        -0.755881
 H         4.040817        -1.347152         0.030749
 H         1.355579        -2.533505        -0.065094
 H         0.828626        -2.632338         2.479590
 H         2.185724        -3.554409         2.034299
 H         2.229702        -1.979812         3.989175
 H         3.567216        -1.712040         2.938908
 H         2.770772         0.999888         1.540291
