19
Iteration:  2998
 C        -0.145564        -0.288044         0.123523
 C         1.275841        -0.511715         0.450161
 O         2.198075        -0.097372        -0.577335
 C         3.047169        -0.795198         0.403308
 C         1.967635        -1.878952         0.656594
 C         1.724585        -2.548774         2.090447
 C         2.596710        -1.767724         3.106177
 O         2.354549        -0.356742         2.823889
 C         2.316469         0.029825         1.428233
 H        -0.701523        -0.758495         1.031497
 H        -0.253238         0.807573         0.027918
 H        -0.469398        -0.854292        -0.833443
 H         4.102642        -0.836392         0.114998
 H         1.774915        -2.394023        -0.309825
 H         0.623095        -2.459029         2.400308
 H         1.927575        -3.671748         2.029345
 H         2.399336        -1.838828         4.177138
 H         3.815670        -1.934203         2.984725
 H         2.479287         1.123905         1.519887
