19
Iteration:  3056
 C        -0.178160        -0.178114         0.285900
 C         1.270191        -0.479991         0.415343
 O         2.296441        -0.116522        -0.624342
 C         3.054744        -0.874853         0.376277
 C         1.952923        -1.917784         0.693579
 C         1.871529        -2.649176         2.055261
 C         2.546325        -1.667273         3.087100
 O         2.152265        -0.368743         2.798968
 C         2.363215         0.052647         1.425427
 H        -0.715914        -0.252946         1.306690
 H        -0.322253         0.889250        -0.072049
 H        -0.594301        -0.840342        -0.492676
 H         4.128999        -0.889574         0.056056
 H         1.800286        -2.562550        -0.234918
 H         0.856294        -2.821879         2.497198
 H         2.440118        -3.492044         2.085566
 H         2.241563        -2.100428         4.040172
 H         3.702820        -1.875125         2.830134
 H         2.643425         1.075994         1.309518
