19
Iteration:  1256charge 0 multiplicity 1
 C        -0.112601        -0.283632         0.343307
 C         1.330231        -0.431000         0.478528
 O         2.298080        -0.215740        -0.656302
 C         3.076583        -0.908607         0.455064
 C         1.767359        -1.857028         0.707460
 C         1.791048        -2.567537         2.033837
 C         2.467119        -1.664154         3.029248
 O         2.294636        -0.263170         2.745185
 C         2.385632         0.073678         1.386696
 H        -0.412023        -0.604063         1.379634
 H        -0.347827         0.686702        -0.057633
 H        -0.316790        -1.086338        -0.366350
 H         4.053600        -1.169443        -0.013749
 H         1.486355        -2.610413        -0.110502
 H         0.745443        -2.996087         2.418465
 H         2.349857        -3.481645         1.845507
 H         2.010711        -1.824103         3.952447
 H         3.710755        -1.903651         3.076197
 H         2.705084         1.109725         1.427687
