19
Iteration:  1717
 C        -0.145331         0.044326         0.283135
 C         1.221872        -0.572989         0.404441
 O         2.178703        -0.359549        -0.749530
 C         3.084448        -0.806814         0.473443
 C         2.044089        -1.985493         0.646430
 C         1.917241        -2.553859         2.011417
 C         2.561349        -1.661586         3.108205
 O         2.244979        -0.372316         2.839438
 C         2.240477         0.012886         1.467089
 H        -0.881686         0.119887         1.107172
 H         0.099607         1.093605         0.123973
 H        -0.771308        -0.403746        -0.464255
 H         4.171623        -0.704355         0.307425
 H         1.909176        -2.668483        -0.255749
 H         0.851338        -2.524352         2.317370
 H         2.348955        -3.542771         2.105355
 H         2.244635        -1.926482         4.150759
 H         3.759962        -1.772807         3.128156
 H         2.329063         1.098060         1.491647
