19
Iteration:  3980
 C        -0.095434        -0.008693         0.304979
 C         1.195243        -0.566269         0.452584
 O         2.296169        -0.246311        -0.694472
 C         3.005923        -0.984316         0.424814
 C         1.929740        -2.011423         0.588936
 C         1.974481        -2.604336         2.141002
 C         2.721335        -1.544493         3.073857
 O         2.077232        -0.294966         2.781577
 C         2.230359         0.014294         1.433338
 H        -0.567251         0.059203         1.327546
 H        -0.241682         0.928491        -0.291751
 H        -0.816748        -0.653612        -0.292890
 H         4.121662        -1.190253         0.306240
 H         1.920642        -2.819415        -0.189903
 H         0.933086        -2.654842         2.380042
 H         2.431960        -3.542837         2.021746
 H         2.410088        -1.730093         4.160117
 H         3.841814        -1.538372         3.090244
 H         2.379048         1.050252         1.242881
