19
Iteration:  1617
 C        -0.127737        -0.229358         0.293909
 C         1.249751        -0.689982         0.418939
 O         2.187236        -0.214372        -0.584216
 C         3.092037        -0.775084         0.467065
 C         2.046450        -2.009917         0.652565
 C         1.703138        -2.529061         2.008279
 C         2.466434        -1.662276         2.973120
 O         2.451968        -0.213956         2.798378
 C         2.300477         0.058929         1.462844
 H        -0.893935        -0.379890         1.118784
 H        -0.115961         0.907604         0.344754
 H        -0.695908        -0.564381        -0.650472
 H         4.262752        -0.802988         0.246254
 H         1.810887        -2.757310        -0.227859
 H         0.582760        -2.289941         2.026161
 H         1.921502        -3.606526         2.218740
 H         2.122227        -1.760872         3.980913
 H         3.530603        -2.257887         2.937366
 H         2.422242         1.194950         1.444279
