19
Iteration:  1718charge 0 multiplicity 1
 C        -0.143606         0.037965         0.283133
 C         1.217343        -0.567585         0.409931
 O         2.181662        -0.360968        -0.751651
 C         3.086789        -0.798485         0.456431
 C         2.045285        -1.998929         0.649936
 C         1.921867        -2.543152         2.023312
 C         2.558323        -1.672624         3.103912
 O         2.245621        -0.374350         2.845628
 C         2.232906         0.026024         1.461610
 H        -0.883840         0.114760         1.148746
 H         0.114133         1.114665         0.097265
 H        -0.753455        -0.389885        -0.512003
 H         4.145912        -0.726503         0.330481
 H         1.919477        -2.683589        -0.244715
 H         0.864793        -2.543948         2.295084
 H         2.295918        -3.528787         2.068852
 H         2.237381        -1.926327         4.186289
 H         3.767371        -1.774457         3.105955
 H         2.358920         1.087102         1.541543
