19
Iteration:  4254
 C        -0.181993        -0.386626         0.417248
 C         1.267738        -0.457781         0.356874
 O         2.263816        -0.279600        -0.708074
 C         3.132014        -0.867775         0.363430
 C         2.011804        -1.898758         0.652722
 C         1.666101        -2.459286         2.024613
 C         2.445512        -1.673256         3.093704
 O         2.356506        -0.250582         2.834158
 C         2.391504         0.122827         1.383849
 H        -0.593831        -0.041846         1.333098
 H        -0.674639         0.437598        -0.107087
 H        -0.587865        -1.345477         0.156352
 H         4.293467        -0.908790         0.204586
 H         1.977892        -2.670123        -0.159481
 H         0.572115        -2.490003         2.169303
 H         1.942897        -3.430171         2.330095
 H         2.143955        -1.844443         4.180592
 H         3.487552        -2.155629         3.193721
 H         2.659985         1.173420         1.348522
