19
Iteration:  2709charge 0 multiplicity 1
 C        -0.203629        -0.082432         0.277907
 C         1.232877        -0.553850         0.381971
 O         2.294260        -0.191380        -0.628962
 C         3.024756        -0.862365         0.475252
 C         2.005675        -1.955592         0.540951
 C         1.906997        -2.634154         2.011619
 C         2.452026        -1.696396         3.092168
 O         2.296868        -0.262430         2.817300
 C         2.334192         0.051118         1.487694
 H        -0.622466        -0.399893         1.354494
 H        -0.371700         1.035690         0.205854
 H        -0.922168        -0.625814        -0.488007
 H         4.132483        -1.111319         0.270632
 H         1.924091        -2.740125        -0.235031
 H         0.822958        -2.964469         2.167593
 H         2.505999        -3.522925         2.057322
 H         1.989842        -1.842460         4.135130
 H         3.539381        -2.097489         3.107948
 H         2.445659         1.127753         1.382034
