19
Iteration:  1914charge 0 multiplicity 1
 C        -0.109942        -0.047825         0.287864
 C         1.249506        -0.614765         0.479775
 O         2.266335        -0.249337        -0.690438
 C         2.987941        -0.805259         0.446971
 C         2.010623        -2.002245         0.632066
 C         1.822234        -2.544737         1.982143
 C         2.609641        -1.637222         3.041661
 O         2.228157        -0.322712         2.825603
 C         2.278801        -0.024959         1.493762
 H        -0.743735         0.024130         1.168079
 H        -0.015209         1.013316         0.004333
 H        -0.698461        -0.484260        -0.453949
 H         4.052312        -0.896340         0.267159
 H         1.888921        -2.780227        -0.174884
 H         0.761582        -2.521206         2.414693
 H         2.132296        -3.683935         2.104596
 H         2.318538        -1.881255         4.142782
 H         3.804904        -1.745284         2.951842
 H         2.333984         1.015714         1.225319
