19
Iteration:  2740charge 0 multiplicity 1
 C        -0.044043        -0.057109         0.362914
 C         1.256207        -0.573753         0.511151
 O         2.204597        -0.275407        -0.670010
 C         3.085797        -0.770866         0.404329
 C         2.080260        -1.953851         0.604154
 C         1.892727        -2.582305         1.967989
 C         2.412909        -1.749382         3.100249
 O         2.209048        -0.301986         2.779118
 C         2.311072         0.052792         1.442438
 H        -0.857538        -0.621414         0.929970
 H        -0.119052         1.015221         0.525583
 H        -0.624885        -0.334134        -0.519393
 H         4.170708        -1.017315         0.040212
 H         1.811626        -2.599623        -0.270751
 H         0.882457        -2.772137         2.203298
 H         2.465647        -3.571750         2.118326
 H         1.991439        -1.732776         4.150624
 H         3.477533        -1.849594         3.142405
 H         2.179285         1.122122         1.397937
