19
Iteration:  2436charge 0 multiplicity 1
 C        -0.094212        -0.077687         0.290240
 C         1.262226        -0.573841         0.429304
 O         2.203689        -0.292448        -0.700000
 C         3.094932        -0.690285         0.350591
 C         2.022776        -1.835795         0.648411
 C         1.787675        -2.565440         2.064674
 C         2.558604        -1.746343         3.118633
 O         2.255049        -0.431518         2.870236
 C         2.277556         0.050128         1.417329
 H        -0.869531        -0.090815         1.035381
 H         0.021704         0.937906        -0.011264
 H        -0.587120        -0.568723        -0.494320
 H         4.142262        -0.961790         0.189076
 H         1.910037        -2.632376        -0.018960
 H         0.695787        -2.617923         2.388428
 H         2.205692        -3.542253         1.963164
 H         2.323725        -1.854056         4.158785
 H         3.644398        -2.120443         2.930000
 H         2.191788         1.089542         1.489924
