19
Iteration:   653
 C        -0.110658        -0.173068         0.384305
 C         1.295069        -0.472065         0.572732
 O         2.300845        -0.262590        -0.643304
 C         3.030757        -0.983773         0.352018
 C         1.831922        -1.830810         0.686167
 C         1.898492        -2.600368         1.975734
 C         2.478813        -1.615997         3.019905
 O         2.205886        -0.256663         2.745026
 C         2.421536         0.003046         1.429460
 H        -0.705869         0.045631         1.270522
 H        -0.267831         0.743628        -0.172431
 H        -0.545860        -0.989236        -0.195092
 H         4.072292        -1.256855         0.327750
 H         1.409833        -2.475205        -0.110409
 H         0.793195        -2.679570         2.243063
 H         2.470193        -3.677815         1.837031
 H         2.098787        -1.811794         4.084539
 H         3.724319        -1.741917         3.063916
 H         2.626049         1.018347         1.163675
