19
Iteration:  3428charge 0 multiplicity 1
 C        -0.179380        -0.047152         0.276379
 C         1.221127        -0.546253         0.439009
 O         2.323121        -0.214645        -0.581683
 C         3.040285        -0.917253         0.500476
 C         1.942218        -2.008214         0.629971
 C         1.951420        -2.610806         2.027980
 C         2.601563        -1.612737         3.055651
 O         2.200359        -0.289802         2.763529
 C         2.191882         0.020197         1.428960
 H        -0.799301        -0.513621         1.008087
 H        -0.215394         1.010809         0.535919
 H        -0.539776        -0.176880        -0.750440
 H         4.066352        -1.041319         0.227780
 H         1.985369        -2.757266        -0.197504
 H         0.911130        -2.904057         2.147990
 H         2.511454        -3.659962         2.043312
 H         2.322949        -1.850353         4.076626
 H         3.708564        -1.686966         2.710294
 H         2.373256         1.105883         1.176221
