19
Iteration:  1955
 C        -0.143108        -0.279379         0.249309
 C         1.250752        -0.485784         0.503870
 O         2.256436        -0.227235        -0.672179
 C         2.997434        -0.883116         0.423445
 C         1.876294        -1.887754         0.623910
 C         1.757811        -2.519774         2.026340
 C         2.550817        -1.689966         3.034423
 O         2.355411        -0.305901         2.831534
 C         2.409361         0.136020         1.497580
 H        -0.690166        -0.542556         1.192677
 H        -0.291164         0.760358        -0.079578
 H        -0.454964        -0.904902        -0.614767
 H         4.087080        -1.142536         0.341012
 H         1.799579        -2.544605        -0.227114
 H         0.743046        -2.659379         2.230130
 H         2.046718        -3.529041         1.986778
 H         2.129080        -1.905459         3.954320
 H         3.580647        -2.011310         2.944778
 H         2.803223         1.120923         1.601681
