19
Iteration:  1454charge 0 multiplicity 1
 C        -0.199724        -0.338064         0.312609
 C         1.289241        -0.429191         0.438703
 O         2.294274        -0.186279        -0.590449
 C         3.018770        -0.956344         0.435581
 C         1.877673        -1.888110         0.622061
 C         1.774866        -2.490152         1.958368
 C         2.468769        -1.633640         3.095136
 O         2.338242        -0.256664         2.773977
 C         2.438118         0.007501         1.436918
 H        -0.458337        -0.590032         1.366083
 H        -0.476527         0.689037        -0.005592
 H        -0.485881        -1.168984        -0.393266
 H         4.088460        -1.185667         0.105338
 H         1.679420        -2.551678        -0.291357
 H         0.738562        -2.557548         2.293963
 H         2.216980        -3.436706         2.057073
 H         2.133644        -1.665602         4.114690
 H         3.656051        -1.979503         3.142983
 H         2.709740         1.065560         1.265312
