19
Iteration:   954charge 0 multiplicity 1
 C        -0.105513        -0.277073         0.204002
 C         1.251393        -0.407475         0.445951
 O         2.278402        -0.173755        -0.632460
 C         2.992077        -0.918596         0.445718
 C         1.766040        -1.845379         0.662911
 C         1.733677        -2.610076         2.071528
 C         2.643383        -1.682884         3.084310
 O         2.326710        -0.269358         2.788129
 C         2.431573        -0.000882         1.456301
 H        -0.570920        -0.937227         0.996207
 H        -0.533657         0.734605         0.254600
 H        -0.337078        -0.767880        -0.766841
 H         4.054313        -1.030135         0.104494
 H         1.424594        -2.391571        -0.197088
 H         0.727950        -2.651679         2.600760
 H         2.184292        -3.650879         1.943136
 H         2.256997        -1.715963         4.151900
 H         3.884427        -1.843290         2.936671
 H         2.610951         1.046777         1.223448
