19
Iteration:  1518charge 0 multiplicity 1
 C        -0.097569        -0.019262         0.278399
 C         1.236638        -0.631847         0.363850
 O         2.190023        -0.229921        -0.708853
 C         3.075903        -0.825259         0.450569
 C         2.044131        -2.012200         0.676469
 C         1.850697        -2.606509         2.155959
 C         2.597073        -1.675372         3.103236
 O         2.249458        -0.295516         2.790237
 C         2.203843        -0.008766         1.392800
 H        -0.471382         0.156549         1.297889
 H        -0.122642         1.066242         0.026939
 H        -0.936924        -0.343142        -0.429562
 H         4.222228        -0.792277         0.330222
 H         1.981983        -2.765795        -0.190960
 H         0.787274        -2.581354         2.159257
 H         2.127648        -3.642267         2.153135
 H         2.428714        -1.909171         4.118908
 H         3.617590        -1.743979         2.924721
 H         2.336084         1.093835         1.433411
