19
Iteration:  3793
 C        -0.155585         0.050067         0.196984
 C         1.221845        -0.476444         0.520064
 O         2.171063        -0.372295        -0.629554
 C         3.068794        -0.838887         0.448550
 C         2.004886        -1.977077         0.702725
 C         2.015488        -2.745681         2.105588
 C         2.579051        -1.635302         3.003650
 O         2.092265        -0.316905         2.767604
 C         2.318341         0.114407         1.418538
 H        -0.494625         0.344054         1.228862
 H         0.032237         0.786831        -0.564172
 H        -0.871691        -0.558250        -0.314529
 H         4.130333        -1.064878         0.240505
 H         1.740700        -2.639226        -0.124637
 H         1.025352        -3.181491         2.265096
 H         2.762409        -3.521742         1.926278
 H         2.639660        -1.830952         4.146488
 H         3.691764        -1.660663         2.996938
 H         2.417281         1.243519         1.423720
