19
Iteration:  3431charge 0 multiplicity 1
 C        -0.167453        -0.046766         0.281714
 C         1.266182        -0.552731         0.445627
 O         2.290680        -0.222031        -0.589829
 C         3.018536        -0.926823         0.515237
 C         1.967401        -1.998154         0.613192
 C         1.955821        -2.620525         2.020431
 C         2.575120        -1.575322         3.027868
 O         2.182189        -0.296648         2.777099
 C         2.235765         0.006969         1.434747
 H        -0.844477        -0.492331         1.013981
 H        -0.175380         1.005117         0.585793
 H        -0.666998        -0.213337        -0.726681
 H         4.042047        -1.106867         0.213314
 H         2.031963        -2.722683        -0.214024
 H         0.789956        -2.881005         2.212462
 H         2.583149        -3.544198         1.994321
 H         2.286360        -1.891677         4.142567
 H         3.694907        -1.657948         2.708144
 H         2.406252         1.151467         1.195988
