19
Iteration:  1164
 C        -0.241937        -0.171881         0.169103
 C         1.300446        -0.371117         0.379926
 O         2.227975        -0.255615        -0.650965
 C         2.992150        -1.028833         0.535866
 C         1.855671        -1.899652         0.668951
 C         1.915111        -2.593395         2.016818
 C         2.550186        -1.632845         3.066880
 O         2.307202        -0.267345         2.844981
 C         2.408500         0.028168         1.501620
 H        -0.798518        -0.895864         0.835687
 H        -0.620144         0.949184         0.376255
 H        -0.623900        -0.492301        -0.867731
 H         4.014397        -1.163156         0.294100
 H         1.536237        -2.424587        -0.250988
 H         0.877204        -2.796428         2.379185
 H         2.564360        -3.455411         2.054062
 H         2.415974        -2.011236         4.232218
 H         3.778667        -1.579198         2.681749
 H         2.863426         1.061593         1.280097
