19
Iteration:  1801
 C        -0.171999        -0.265468         0.307903
 C         1.291987        -0.506239         0.426926
 O         2.240411        -0.205174        -0.677828
 C         3.030992        -0.800663         0.418286
 C         2.003237        -1.936303         0.654435
 C         1.713272        -2.466882         2.082323
 C         2.465390        -1.719296         3.048677
 O         2.365482        -0.309196         2.832396
 C         2.384750         0.037891         1.409561
 H        -0.530332        -0.736074         1.224583
 H        -0.428729         0.806723         0.230598
 H        -0.541687        -0.823930        -0.629240
 H         4.150887        -0.938536         0.201310
 H         1.939565        -2.593588        -0.222884
 H         0.580653        -2.385519         2.216938
 H         2.085133        -3.574433         2.012273
 H         2.164902        -1.940411         4.052754
 H         3.593836        -2.027154         2.936494
 H         2.615709         1.119094         1.511345
