19
Iteration:  3932
 C        -0.134924        -0.228377         0.203086
 C         1.220205        -0.495650         0.492089
 O         2.188601        -0.305693        -0.622296
 C         3.000809        -0.886682         0.406614
 C         1.986238        -1.921345         0.656887
 C         1.880685        -2.557494         2.065308
 C         2.535825        -1.636039         3.054009
 O         2.361664        -0.241108         2.829258
 C         2.318082         0.073850         1.449360
 H        -0.999129        -0.617806         0.797239
 H        -0.345080         0.868352         0.042394
 H        -0.325709        -0.552259        -0.843444
 H         4.023803        -1.138140         0.274299
 H         1.607210        -2.649592        -0.065043
 H         0.764104        -2.515155         2.325196
 H         2.384728        -3.587902         2.088411
 H         2.284488        -1.887243         4.073278
 H         3.559927        -1.768331         3.027549
 H         2.494585         1.206805         1.229992
