19
Iteration:  1337
 C        -0.240145        -0.111177         0.176056
 C         1.260658        -0.527897         0.533817
 O         2.267420        -0.310563        -0.650367
 C         3.082556        -0.858263         0.426719
 C         1.942669        -1.916631         0.685355
 C         1.829624        -2.566147         2.078650
 C         2.568799        -1.677034         2.999899
 O         2.263795        -0.296444         2.822185
 C         2.359314         0.066639         1.424725
 H        -0.721182        -0.135520         1.195472
 H        -0.160580         0.966120        -0.082317
 H        -0.873658        -0.800187        -0.435725
 H         4.179738        -0.958963         0.179540
 H         1.648917        -2.607370        -0.097478
 H         0.705643        -2.600578         2.282781
 H         2.377514        -3.597232         2.057580
 H         2.338574        -2.031967         4.086936
 H         3.803950        -1.842608         2.952669
 H         2.493454         1.193116         1.393679
