19
Iteration:  4119
 C        -0.215086        -0.166493         0.265820
 C         1.230391        -0.547340         0.384071
 O         2.291800        -0.380749        -0.663463
 C         3.051934        -0.879375         0.474035
 C         1.861619        -1.885981         0.643657
 C         1.869779        -2.543729         2.056909
 C         2.598713        -1.621331         3.082050
 O         2.270774        -0.259975         2.807745
 C         2.344619         0.120571         1.415100
 H        -0.559867        -0.983789         0.902401
 H        -0.383453         0.735870         0.783715
 H        -0.633912        -0.206357        -0.725044
 H         4.025282        -1.091466         0.131552
 H         1.811739        -2.638324        -0.126269
 H         0.831117        -2.506196         2.346718
 H         2.384206        -3.503411         2.129580
 H         2.362127        -1.859506         4.149134
 H         3.765540        -1.847345         3.182877
 H         2.424732         1.224152         1.238217
