19
Iteration:  4469
 C        -0.147115        -0.208011         0.449647
 C         1.256190        -0.620111         0.501407
 O         2.202648        -0.164536        -0.741060
 C         3.103029        -0.921114         0.353982
 C         2.056969        -1.971640         0.666944
 C         1.875815        -2.561412         2.020835
 C         2.345823        -1.627826         3.158394
 O         2.295507        -0.175124         2.759213
 C         2.369721        -0.024813         1.339660
 H        -0.307466         0.259690         1.461236
 H        -0.217026         0.689368        -0.289762
 H        -0.670870        -1.091791        -0.002464
 H         4.114816        -0.859655         0.157597
 H         1.855930        -2.612773        -0.229882
 H         0.787750        -2.623074         2.055898
 H         2.350108        -3.510055         2.103401
 H         1.723686        -1.976661         4.054995
 H         3.471581        -1.895928         3.353204
 H         2.529935         1.066073         1.334213
