19
Iteration:  3825
 C        -0.169134        -0.110506         0.284602
 C         1.256215        -0.583512         0.453529
 O         2.274053        -0.248352        -0.667464
 C         3.033940        -0.907925         0.453914
 C         1.917206        -1.982998         0.581738
 C         1.962403        -2.513362         2.023134
 C         2.595630        -1.583915         3.130061
 O         2.148953        -0.287475         2.823294
 C         2.308199        -0.007824         1.389020
 H        -0.382350        -0.087395         1.402396
 H         0.053508         0.965982         0.136147
 H        -0.879818        -0.627183        -0.352287
 H         4.058248        -1.176238         0.301385
 H         1.689176        -2.744651        -0.182298
 H         1.029541        -2.830853         2.357553
 H         2.396105        -3.449253         1.958141
 H         2.072492        -2.031707         4.049237
 H         3.737681        -1.478532         3.020558
 H         2.532103         1.100796         1.206001
