19
Iteration:  2374
 C        -0.152629        -0.196249         0.306409
 C         1.335829        -0.432701         0.485775
 O         2.311263        -0.159680        -0.653673
 C         3.050493        -0.970308         0.325184
 C         1.773769        -1.956432         0.639928
 C         1.917812        -2.599291         1.986979
 C         2.498046        -1.652657         3.031781
 O         2.180657        -0.256956         2.915739
 C         2.404716         0.034144         1.455070
 H        -0.527375        -0.783372         1.177127
 H        -0.314987         0.914067         0.313727
 H        -0.340575        -0.660108        -0.742948
 H         4.080912        -1.134267         0.132269
 H         1.358813        -2.560430        -0.253049
 H         0.840458        -2.911483         2.272291
 H         2.659431        -3.558901         1.987761
 H         2.036425        -1.836673         4.038007
 H         3.582836        -1.799674         3.070380
 H         2.747508         1.074271         1.226255
