19
Iteration:  4859
 C        -0.204262         0.016530         0.381517
 C         1.254647        -0.606902         0.423246
 O         2.230772        -0.246534        -0.678295
 C         3.129145        -0.947109         0.289204
 C         2.057001        -1.978339         0.621810
 C         1.966556        -2.558648         1.983695
 C         2.466633        -1.672218         3.107770
 O         2.179298        -0.236316         2.821718
 C         2.287284        -0.029973         1.473310
 H        -0.961548        -0.638735         0.878258
 H        -0.251200         1.035815         0.924781
 H        -0.536292         0.046704        -0.669613
 H         4.238460        -1.087853         0.123786
 H         1.925730        -2.736441        -0.101966
 H         1.052951        -2.863004         2.323244
 H         2.545952        -3.482343         2.190314
 H         1.950984        -1.939900         4.044400
 H         3.464198        -1.552908         3.328773
 H         2.456646         1.050849         1.474161
