19
Iteration:  2841
 C        -0.140202        -0.222666         0.159287
 C         1.236610        -0.547576         0.444679
 O         2.192600        -0.158087        -0.641729
 C         3.103528        -0.779488         0.358554
 C         1.936367        -1.873117         0.624568
 C         1.816136        -2.533495         2.038026
 C         2.616906        -1.763752         3.102788
 O         2.297898        -0.370759         2.932923
 C         2.300969         0.046093         1.467214
 H        -0.728362        -0.026031         1.025941
 H        -0.269846         0.721315        -0.400300
 H        -0.628228        -0.874204        -0.531133
 H         4.176829        -0.822541         0.175800
 H         1.918638        -2.528039        -0.188259
 H         0.773438        -2.552191         2.307317
 H         2.103092        -3.566884         2.015488
 H         2.184363        -2.056412         4.077970
 H         3.646168        -2.058722         3.178200
 H         2.466132         1.102702         1.527536
