19
Iteration:  3240
 C        -0.115584        -0.101251         0.258757
 C         1.283361        -0.501085         0.483421
 O         2.153990        -0.198155        -0.622403
 C         3.012132        -0.853450         0.471011
 C         1.987473        -1.919713         0.664727
 C         1.967309        -2.661648         1.990221
 C         2.527437        -1.684355         3.040043
 O         2.188165        -0.340293         2.828857
 C         2.341687         0.043699         1.399264
 H        -0.851229        -0.281801         1.072521
 H        -0.360470         0.924567         0.017800
 H        -0.331233        -0.496638        -0.693833
 H         4.138094        -0.915446         0.295138
 H         1.790189        -2.641864        -0.164859
 H         0.982873        -3.026446         2.257067
 H         2.535097        -3.662824         2.101009
 H         2.279188        -1.749603         4.039596
 H         3.584444        -1.674369         2.882194
 H         2.639158         1.061154         1.388525
