19
Iteration:  3907charge 0 multiplicity 1
 C        -0.236276        -0.373969         0.226193
 C         1.226702        -0.584205         0.339412
 O         2.241038        -0.112057        -0.632514
 C         3.082071        -0.784242         0.369250
 C         1.936201        -1.970512         0.591091
 C         1.668324        -2.530932         2.115882
 C         2.526287        -1.606174         3.217623
 O         2.479234        -0.248508         2.809100
 C         2.416718        -0.022141         1.444900
 H        -0.943226        -0.840265         0.839200
 H        -0.428078         0.706325         0.361211
 H        -0.654126        -0.504506        -0.774186
 H         4.133573        -1.018535         0.055089
 H         1.842767        -2.796027        -0.139636
 H         0.636893        -2.386469         2.529343
 H         2.146302        -3.581900         2.099744
 H         2.226247        -1.740985         4.212006
 H         3.564880        -1.844117         3.278524
 H         2.452138         1.035754         1.244842
