19
Iteration:  1642charge 0 multiplicity 1
 C        -0.148179        -0.240509         0.329842
 C         1.284037        -0.506852         0.446020
 O         2.265030        -0.234908        -0.722173
 C         3.119074        -0.782390         0.400523
 C         1.983174        -1.905431         0.634856
 C         1.703397        -2.557523         2.071005
 C         2.488703        -1.692573         3.037540
 O         2.344481        -0.310463         2.808088
 C         2.335392         0.066636         1.451702
 H        -0.712251        -0.536358         1.293576
 H        -0.544210         0.807623         0.199065
 H        -0.609103        -0.950359        -0.392507
 H         4.184793        -0.979260         0.334054
 H         1.862061        -2.640164        -0.234015
 H         0.658755        -2.447227         2.385625
 H         2.037566        -3.554238         2.150228
 H         2.123737        -1.826855         4.110512
 H         3.513096        -2.060556         3.001860
 H         2.486458         1.129050         1.496987
