19
Iteration:  4052charge 0 multiplicity 1
 C        -0.285016        -0.347838         0.295071
 C         1.258481        -0.547491         0.432391
 O         2.240574        -0.200930        -0.658148
 C         3.075442        -0.876221         0.365044
 C         2.001533        -1.932899         0.633225
 C         1.774585        -2.454530         2.029980
 C         2.386823        -1.586742         3.157353
 O         2.475857        -0.250778         2.811371
 C         2.418696         0.039756         1.439665
 H        -0.711599        -0.562778         1.282695
 H        -0.616126         0.551975        -0.136016
 H        -0.726172        -0.982378        -0.446789
 H         4.035537        -1.268722         0.178885
 H         1.903418        -2.398255        -0.326708
 H         0.660023        -2.624733         2.071871
 H         2.328955        -3.446654         2.202970
 H         1.986033        -1.845324         4.134727
 H         3.503479        -2.111766         3.171867
 H         2.549463         1.184088         1.366993
