19
Iteration:  3808charge 0 multiplicity 1
 C        -0.109258         0.036794         0.289986
 C         1.260132        -0.572005         0.426345
 O         2.240033        -0.336149        -0.661614
 C         3.048741        -0.937393         0.407787
 C         1.944823        -1.973406         0.697417
 C         2.027267        -2.652956         2.009746
 C         2.581293        -1.625076         3.029115
 O         2.102359        -0.249062         2.831030
 C         2.224643         0.062144         1.480106
 H        -0.720044         0.293317         1.123001
 H        -0.123258         1.022799        -0.213547
 H        -0.741222        -0.733048        -0.210956
 H         4.155545        -0.967522         0.116695
 H         1.863156        -2.584333        -0.212204
 H         0.989630        -3.040658         2.443115
 H         2.830085        -3.524420         2.121526
 H         2.343630        -1.787585         4.036831
 H         3.691997        -1.668928         2.837696
 H         2.424716         1.079862         1.347002
