19
Iteration:  1390charge 0 multiplicity 1
 C        -0.197711        -0.089616         0.311549
 C         1.263903        -0.535662         0.485925
 O         2.277931        -0.269258        -0.636710
 C         3.029519        -0.923499         0.435744
 C         1.931560        -1.946968         0.624339
 C         1.876399        -2.588695         2.086595
 C         2.587587        -1.634365         3.077427
 O         2.253179        -0.261438         2.763165
 C         2.343899         0.041201         1.404565
 H        -1.054867        -0.606889         0.765832
 H        -0.216154         1.008354         0.348305
 H        -0.559439        -0.261881        -0.728346
 H         4.116272        -1.124930         0.158942
 H         1.868259        -2.737599        -0.166616
 H         0.770765        -2.735184         2.219454
 H         2.245717        -3.655978         2.033048
 H         2.203076        -1.901247         4.051744
 H         3.594263        -1.715490         3.116150
 H         2.448635         1.142144         1.252078
