19
Iteration:  1808
 C        -0.136195        -0.240513         0.310190
 C         1.315990        -0.566205         0.463532
 O         2.186501        -0.227232        -0.625402
 C         3.075252        -0.787915         0.411224
 C         2.030290        -1.860218         0.669751
 C         1.728885        -2.524175         2.014744
 C         2.457401        -1.698724         3.053540
 O         2.362896        -0.313571         2.746559
 C         2.334934         0.042770         1.437588
 H        -0.730178        -0.665706         1.185120
 H        -0.164345         0.898229         0.309277
 H        -0.486092        -0.821586        -0.593687
 H         4.086872        -0.993506         0.135401
 H         2.073938        -2.713204        -0.024690
 H         0.750930        -2.189474         2.303919
 H         1.810004        -3.572610         2.053587
 H         2.066555        -1.975165         4.132805
 H         3.531859        -2.061592         3.076647
 H         2.527500         1.158434         1.337727
