19
Iteration:  4814
 C        -0.270357        -0.259571         0.317002
 C         1.285859        -0.416194         0.505320
 O         2.302073        -0.241153        -0.685188
 C         3.100856        -0.888074         0.437913
 C         1.970021        -1.876049         0.607599
 C         1.787987        -2.600036         2.030839
 C         2.508211        -1.661421         3.056513
 O         2.331500        -0.309056         2.829283
 C         2.344680         0.101932         1.409665
 H        -0.768121        -1.196985         0.760155
 H        -0.700720         0.638678         0.833462
 H        -0.433277        -0.293539        -0.787080
 H         4.196621        -1.071027         0.139723
 H         1.662028        -2.478355        -0.264321
 H         0.753468        -2.738233         2.062912
 H         2.181623        -3.652768         2.198663
 H         2.188651        -1.645073         4.076848
 H         3.516072        -1.964048         3.102414
 H         2.479465         1.190651         1.378164
