19
Iteration:   285charge 0 multiplicity 1
 C        -0.082378        -0.071471         0.300645
 C         1.248271        -0.687081         0.490439
 O         2.220664        -0.312804        -0.691604
 C         3.128076        -0.751173         0.435003
 C         2.000571        -1.922275         0.708308
 C         1.632822        -2.590560         2.012857
 C         2.510284        -1.671996         3.076552
 O         2.410677        -0.268096         2.795172
 C         2.258999         0.025872         1.391301
 H        -0.657715        -0.215503         1.254770
 H        -0.014482         1.008342         0.181547
 H        -0.766731        -0.586611        -0.252132
 H         4.120130        -0.808602         0.096172
 H         1.885134        -2.509247        -0.134668
 H         0.545126        -2.531547         2.156514
 H         2.139079        -3.675042         1.978655
 H         2.345400        -1.758133         4.128319
 H         3.557039        -1.894183         2.927545
 H         2.323048         1.072428         1.208702
