19
Iteration:  4061charge 0 multiplicity 1
 C        -0.201725        -0.395849         0.284781
 C         1.263856        -0.566748         0.446858
 O         2.191217        -0.146089        -0.670328
 C         3.083736        -0.933208         0.408673
 C         1.959581        -1.937893         0.543640
 C         1.771775        -2.478997         2.031556
 C         2.395616        -1.620263         3.145958
 O         2.507616        -0.177056         2.877919
 C         2.399862         0.037500         1.424709
 H        -0.783628        -0.669622         1.151568
 H        -0.481596         0.653119         0.132248
 H        -0.592389        -1.026144        -0.503285
 H         4.103131        -0.953919         0.003496
 H         1.813779        -2.742060        -0.208234
 H         0.705373        -2.513496         2.011887
 H         1.872082        -3.544322         2.320688
 H         1.867595        -1.694045         4.059725
 H         3.529992        -1.918538         3.206776
 H         2.655686         1.121755         1.255700
