19
Iteration:  4082
 C        -0.090959        -0.376465         0.284106
 C         1.317336        -0.627536         0.513090
 O         2.175981        -0.207880        -0.592323
 C         3.076870        -0.790954         0.326308
 C         1.950864        -1.953060         0.662644
 C         1.670680        -2.435302         2.052585
 C         2.459581        -1.614991         3.107403
 O         2.452102        -0.228002         2.760598
 C         2.389540         0.040827         1.407342
 H        -0.728283        -0.964878         0.943968
 H        -0.488072         0.672490         0.385538
 H        -0.437145        -0.672700        -0.722489
 H         4.133735        -1.060698         0.035570
 H         1.809617        -2.535574        -0.281203
 H         0.607143        -2.584527         2.174068
 H         1.919324        -3.512490         2.238699
 H         1.888874        -1.690936         3.992267
 H         3.507972        -1.945359         3.119902
 H         2.393858         1.152790         1.366340
