19
Iteration:  1981charge 0 multiplicity 1
 C        -0.216118        -0.274640         0.241988
 C         1.292623        -0.415730         0.504167
 O         2.232063        -0.171688        -0.582842
 C         3.108591        -0.935846         0.298845
 C         1.867800        -1.895145         0.616402
 C         1.746695        -2.550476         2.036975
 C         2.516149        -1.656013         3.080615
 O         2.329761        -0.243481         2.832785
 C         2.466976         0.028333         1.485893
 H        -0.618159        -0.737522         1.117361
 H        -0.671704         0.648270        -0.112479
 H        -0.311075        -0.938804        -0.580083
 H         4.160328        -1.036662         0.137452
 H         1.643471        -2.687509        -0.187192
 H         0.760119        -2.837453         2.157211
 H         2.038632        -3.664971         1.880498
 H         2.027554        -1.927241         4.096618
 H         3.573100        -1.997585         2.928670
 H         2.951603         1.018105         1.573922
