19
Iteration:  4108charge 0 multiplicity 1
 C        -0.276723        -0.217986         0.288725
 C         1.286361        -0.489375         0.401463
 O         2.244660        -0.330716        -0.739724
 C         3.072844        -0.835854         0.441233
 C         2.010012        -1.946581         0.729651
 C         1.757086        -2.542991         2.086052
 C         2.575280        -1.696486         3.089189
 O         2.335796        -0.198307         2.815890
 C         2.376866         0.085199         1.391116
 H        -0.877510        -0.979599         0.812472
 H        -0.665498         0.680038         0.699335
 H        -0.675707        -0.375037        -0.702133
 H         4.117096        -1.018593         0.385291
 H         1.947305        -2.540435        -0.167121
 H         0.700915        -2.729867         2.270757
 H         2.029864        -3.612569         2.100561
 H         2.042764        -1.809783         4.052227
 H         3.755898        -1.801617         3.003333
 H         2.656455         1.172665         1.378815
