19
Iteration:  1202charge 0 multiplicity 1
 C        -0.046655        -0.049333         0.298611
 C         1.225321        -0.646080         0.494969
 O         2.183793        -0.272515        -0.671890
 C         3.071660        -0.796342         0.404330
 C         1.981726        -1.966516         0.630195
 C         1.887432        -2.540220         2.118493
 C         2.536394        -1.651160         3.110816
 O         2.262098        -0.317038         2.748029
 C         2.217444         0.003200         1.382639
 H        -0.896674        -0.553605         0.767917
 H         0.196709         0.920939         0.629773
 H        -0.196093         0.084830        -0.750588
 H         4.182242        -0.894793         0.198758
 H         1.800423        -2.711511        -0.200963
 H         0.744056        -2.704872         2.257280
 H         2.125886        -3.622231         2.280510
 H         2.366913        -1.733744         4.115973
 H         3.613308        -1.874987         2.971776
 H         2.377663         1.064313         1.413097
