19
Iteration:  4590charge 0 multiplicity 1
 C        -0.186700        -0.301686         0.114574
 C         1.235880        -0.526744         0.422084
 O         2.192366        -0.228011        -0.665147
 C         3.043531        -0.831146         0.411094
 C         1.904591        -1.863136         0.687741
 C         1.702299        -2.525936         2.131997
 C         2.614716        -1.724919         3.167031
 O         2.478318        -0.313769         2.795274
 C         2.292316         0.145603         1.476426
 H        -0.665645        -1.050910         0.786944
 H        -0.587018         0.768971         0.335326
 H        -0.315666        -0.522988        -0.981066
 H         4.042025        -1.001721         0.237779
 H         2.076412        -2.647695        -0.065490
 H         0.603996        -2.484931         2.227603
 H         2.025740        -3.517572         2.089982
 H         2.484887        -1.644845         4.271924
 H         3.605867        -2.071659         2.885096
 H         2.653510         1.169069         1.385287
