19
Iteration:  3589charge 0 multiplicity 1
 C        -0.114936        -0.078510         0.221358
 C         1.280176        -0.530393         0.460669
 O         2.236239        -0.249557        -0.562926
 C         3.032421        -0.938925         0.444452
 C         1.965015        -2.051360         0.658050
 C         1.903005        -2.655010         2.028027
 C         2.629331        -1.619369         2.888569
 O         2.171506        -0.250611         2.878008
 C         2.236095         0.099675         1.494311
 H        -0.830126        -0.173592         1.076866
 H        -0.186106         1.041105        -0.079762
 H        -0.578005        -0.427065        -0.723216
 H         4.182538        -1.085696         0.375977
 H         1.837336        -2.657933        -0.278522
 H         0.830997        -2.831383         2.162906
 H         2.310025        -3.559886         2.335378
 H         2.490104        -1.837684         3.963076
 H         3.748057        -1.524184         2.643186
 H         2.426553         1.130411         1.329693
