19
Iteration:   441
 C        -0.285820        -0.235166         0.298246
 C         1.242934        -0.417637         0.582678
 O         2.367068        -0.265742        -0.605811
 C         3.063267        -1.059267         0.369693
 C         1.830348        -1.902269         0.621626
 C         1.784771        -2.515824         1.950642
 C         2.527379        -1.677024         3.016022
 O         2.324800        -0.230786         2.869705
 C         2.435586         0.150178         1.391527
 H        -0.778764         0.117347         1.190718
 H        -0.527985         0.402906        -0.541101
 H        -0.692085        -1.161542        -0.139689
 H         4.215960        -1.213950         0.351852
 H         1.704216        -2.593381        -0.244605
 H         0.783048        -2.706147         2.355422
 H         2.206974        -3.644121         2.051601
 H         2.199909        -1.954390         4.034988
 H         3.718155        -1.825247         2.972779
 H         2.855752         1.202068         1.169105
