19
Iteration:  3115charge 0 multiplicity 1
 C        -0.215741        -0.071848         0.427521
 C         1.251274        -0.567422         0.436481
 O         2.320457        -0.192594        -0.656427
 C         3.107627        -0.830010         0.460093
 C         2.018301        -1.957235         0.613032
 C         1.941356        -2.680652         1.985707
 C         2.400870        -1.658614         3.040684
 O         2.251832        -0.299290         2.769771
 C         2.259312         0.017298         1.393923
 H        -0.869758        -0.310964         1.219914
 H        -0.228122         0.986481         0.215369
 H        -0.886070        -0.537552        -0.372854
 H         4.134840        -0.811144         0.180665
 H         2.014301        -2.528888        -0.287809
 H         0.926984        -3.042076         2.087885
 H         2.529007        -3.679501         2.154452
 H         2.005533        -1.892891         4.133713
 H         3.681872        -1.712690         3.387010
 H         2.314118         1.169047         1.359051
