19
Iteration:   277charge 0 multiplicity 1
 C        -0.144226        -0.087116         0.304584
 C         1.272813        -0.605485         0.463887
 O         2.203380        -0.317823        -0.649176
 C         3.104895        -0.802139         0.422685
 C         1.993476        -1.964911         0.629552
 C         1.670991        -2.567745         2.036090
 C         2.568406        -1.653771         3.078363
 O         2.364506        -0.284816         2.793094
 C         2.330131         0.056049         1.407046
 H        -0.516762        -0.067137         1.347016
 H        -0.198917         0.919757        -0.122365
 H        -0.782734        -0.699616        -0.353761
 H         4.224904        -0.849058         0.281416
 H         1.895364        -2.602270        -0.299292
 H         0.603749        -2.466189         2.154047
 H         1.879107        -3.689172         2.164523
 H         2.199590        -1.892635         4.061712
 H         3.602451        -1.899493         3.046163
 H         2.386819         1.173648         1.494122
