19
Iteration:  4145charge 0 multiplicity 1
 C        -0.134355        -0.033615         0.238433
 C         1.205206        -0.599000         0.523479
 O         2.236944        -0.237833        -0.650265
 C         3.035140        -0.990150         0.423881
 C         1.897447        -2.021926         0.678906
 C         1.948965        -2.637924         2.101849
 C         2.647398        -1.539054         3.017821
 O         2.100223        -0.195438         2.819360
 C         2.368321         0.017877         1.395974
 H        -0.788232        -0.659257         0.849966
 H        -0.239310         1.100345         0.414717
 H        -0.278324        -0.248903        -0.859715
 H         4.083301        -1.226626         0.020350
 H         1.726779        -2.827925        -0.077763
 H         0.870112        -2.890129         2.384533
 H         2.639007        -3.460544         2.247185
 H         2.610158        -1.848364         4.095107
 H         3.760261        -1.573470         2.783428
 H         2.526866         1.003375         1.061730
