19
Iteration:  3206charge 0 multiplicity 1
 C        -0.174011        -0.220370         0.167468
 C         1.197186        -0.519399         0.410433
 O         2.284285        -0.160279        -0.675724
 C         3.005138        -0.776900         0.455236
 C         1.962946        -1.945792         0.637834
 C         1.802517        -2.542371         2.007214
 C         2.629287        -1.720160         3.067864
 O         2.343665        -0.314844         2.941158
 C         2.264453         0.028171         1.514571
 H        -0.786945        -0.676458         0.953708
 H        -0.212100         0.855080         0.078992
 H        -0.547373        -0.746618        -0.677975
 H         4.072275        -0.865820         0.124881
 H         1.802695        -2.625865        -0.205992
 H         0.749786        -2.406600         2.242247
 H         2.022092        -3.689475         2.106229
 H         2.568211        -2.058530         4.039348
 H         3.664419        -2.092889         2.803777
 H         2.305584         1.065343         1.351693
