19
Iteration:  1147
 C        -0.159124        -0.233717         0.186760
 C         1.186302        -0.501150         0.483176
 O         2.315423        -0.195210        -0.618900
 C         3.046610        -0.948324         0.407221
 C         1.766004        -1.891513         0.647663
 C         1.823253        -2.533963         2.072322
 C         2.639257        -1.684373         3.039504
 O         2.301630        -0.258043         2.844851
 C         2.371247         0.074576         1.438539
 H        -0.796452        -0.614247         0.982263
 H        -0.513095         0.744671         0.218721
 H        -0.314758        -0.724500        -0.751635
 H         4.104295        -1.295851         0.249292
 H         1.570202        -2.614159        -0.176655
 H         0.793866        -2.735224         2.471077
 H         2.431414        -3.440592         1.823664
 H         2.304013        -1.815424         4.001669
 H         3.680986        -1.927960         3.032093
 H         2.717588         1.092191         1.419602
