19
Iteration:  2250
 C        -0.160575        -0.023528         0.246221
 C         1.222409        -0.471857         0.496281
 O         2.246165        -0.300891        -0.598687
 C         3.055900        -0.916906         0.490611
 C         1.955558        -1.968627         0.596777
 C         1.896216        -2.636020         1.961753
 C         2.498179        -1.659909         3.019870
 O         2.249043        -0.305365         2.819385
 C         2.327013         0.077299         1.454633
 H        -0.623693        -0.341677         1.231691
 H        -0.193238         1.085845         0.007782
 H        -0.510738        -0.738919        -0.510855
 H         4.150803        -0.917330         0.221516
 H         1.754885        -2.550341        -0.287304
 H         0.909184        -2.748193         2.321033
 H         2.574456        -3.607266         2.050231
 H         2.255043        -1.932209         4.066878
 H         3.653781        -1.720000         2.975398
 H         2.497997         1.150665         1.384810
