19
Iteration:  2299
 C        -0.258138        -0.175885         0.246878
 C         1.270870        -0.485857         0.434074
 O         2.269936        -0.145567        -0.604116
 C         3.096151        -0.883162         0.454708
 C         1.952285        -1.973878         0.608344
 C         1.774190        -2.562459         2.021056
 C         2.560338        -1.717190         2.992758
 O         2.294814        -0.300574         2.837306
 C         2.378513         0.007339         1.489156
 H        -0.736766        -0.173338         1.222477
 H        -0.184553         0.775206        -0.288144
 H        -0.618821        -1.023249        -0.389802
 H         4.166051        -0.950310         0.273807
 H         1.765308        -2.787850        -0.167413
 H         0.762721        -2.399892         2.537304
 H         2.113132        -3.491399         1.950261
 H         2.097263        -1.827692         3.991197
 H         3.633628        -1.800075         3.013922
 H         2.610830         1.100046         1.347742
