19
Iteration:  1724charge 0 multiplicity 1
 C        -0.150328         0.022573         0.275762
 C         1.214973        -0.556300         0.446939
 O         2.201086        -0.357407        -0.741317
 C         3.056924        -0.768003         0.369583
 C         2.049315        -2.020195         0.662569
 C         1.929156        -2.510135         2.083495
 C         2.572441        -1.740047         3.100808
 O         2.238739        -0.363312         2.871051
 C         2.211442         0.077354         1.432688
 H        -0.673808        -0.001853         1.206061
 H         0.088395         1.045875        -0.023335
 H        -0.620626        -0.300614        -0.677181
 H         4.206007        -0.865475         0.347945
 H         1.988745        -2.748321        -0.136840
 H         0.816529        -2.659822         2.212073
 H         2.143106        -3.643859         1.968332
 H         2.258581        -1.909467         4.090407
 H         3.602218        -1.825041         3.007071
 H         2.475263         1.157310         1.651067
