19
Iteration:   604charge 0 multiplicity 1
 C        -0.192425        -0.168861         0.209645
 C         1.239303        -0.623441         0.465776
 O         2.259328        -0.267170        -0.644289
 C         2.983549        -0.825122         0.434193
 C         2.004033        -1.949658         0.661709
 C         1.705762        -2.432742         2.049201
 C         2.609177        -1.750038         3.099875
 O         2.460776        -0.316041         2.820462
 C         2.257812         0.104631         1.427499
 H        -0.874116        -0.232186         1.114874
 H        -0.061587         0.978888         0.077878
 H        -0.746790        -0.336596        -0.786835
 H         4.054949        -1.073850         0.080088
 H         1.897708        -2.710628        -0.131183
 H         0.668480        -2.440586         2.354780
 H         1.949236        -3.476583         2.126669
 H         2.206750        -1.939939         4.097611
 H         3.724919        -2.146707         3.077465
 H         2.313237         1.237319         1.182445
