19
Iteration:  1053charge 0 multiplicity 1
 C        -0.049571        -0.235980         0.382277
 C         1.354916        -0.439784         0.475569
 O         2.206541        -0.248756        -0.711481
 C         3.068028        -1.020011         0.354688
 C         1.843536        -1.866216         0.655061
 C         1.867782        -2.559621         1.963161
 C         2.466133        -1.615735         3.029856
 O         2.203515        -0.244159         2.856757
 C         2.384446         0.064415         1.492348
 H        -0.464965        -0.136300         1.399938
 H        -0.408452         0.740929        -0.048400
 H        -0.384148        -1.134571        -0.185966
 H         4.091127        -1.334691         0.056149
 H         1.581791        -2.501106        -0.191297
 H         0.864407        -2.839191         2.261866
 H         2.557087        -3.420045         1.851094
 H         1.946405        -1.948055         3.985982
 H         3.467116        -1.688286         3.169680
 H         2.894710         1.017234         1.324873
