19
Iteration:  3212charge 0 multiplicity 1
 C        -0.158233        -0.202021         0.178143
 C         1.229253        -0.563737         0.442319
 O         2.245812        -0.198381        -0.614946
 C         3.020804        -0.783286         0.368762
 C         1.996884        -1.902473         0.637165
 C         1.822431        -2.571034         1.994034
 C         2.623243        -1.715662         3.041374
 O         2.311110        -0.325969         2.939433
 C         2.263104         0.048554         1.498436
 H        -0.880132        -0.491181         0.957992
 H        -0.294919         0.897401         0.000050
 H        -0.543419        -0.566795        -0.848099
 H         4.065662        -0.916729         0.191426
 H         1.842822        -2.603049        -0.192711
 H         0.761881        -2.510140         2.416636
 H         1.914820        -3.629422         2.064245
 H         2.419241        -1.947590         4.192752
 H         3.765633        -1.974193         2.846645
 H         2.404069         1.195898         1.446872
