19
Iteration:  2096charge 0 multiplicity 1
 C        -0.168750        -0.102757         0.273585
 C         1.251076        -0.501109         0.443221
 O         2.281317        -0.272149        -0.603447
 C         3.046672        -0.889519         0.426841
 C         1.849267        -1.887909         0.605065
 C         1.864583        -2.609351         1.949732
 C         2.542820        -1.692790         3.091845
 O         2.293057        -0.290252         2.823555
 C         2.332072         0.053931         1.469510
 H        -0.673535        -0.208174         1.280280
 H        -0.313557         0.884078        -0.240255
 H        -0.657175        -0.809716        -0.452352
 H         4.184145        -1.052965         0.397621
 H         1.804897        -2.542027        -0.240306
 H         0.905107        -3.039557         2.312472
 H         2.408019        -3.513188         2.016094
 H         2.256508        -1.762624         4.113530
 H         3.637411        -1.750030         2.979678
 H         2.577084         1.135613         1.379405
