19
Iteration:  1078charge 0 multiplicity 1
 C        -0.261024        -0.175764         0.380324
 C         1.268542        -0.529018         0.514643
 O         2.327467        -0.207681        -0.663173
 C         3.148596        -0.873483         0.406296
 C         1.938725        -1.954245         0.612928
 C         1.785465        -2.587120         2.053681
 C         2.433613        -1.676575         3.062843
 O         2.304547        -0.284563         2.749773
 C         2.402670         0.072658         1.384028
 H        -0.656234         0.073974         1.337426
 H        -0.632853         0.711365        -0.155834
 H        -0.625362        -1.114436        -0.025814
 H         4.181480        -0.878554         0.141415
 H         1.784378        -2.575671        -0.312483
 H         0.643306        -2.745941         2.317648
 H         2.343097        -3.486625         2.127225
 H         2.028052        -1.895801         4.084488
 H         3.546246        -1.885208         3.191192
 H         2.615592         1.145284         1.113818
