19
Iteration:  4817
 C        -0.264384        -0.259525         0.316355
 C         1.282152        -0.421051         0.507631
 O         2.276811        -0.244624        -0.678374
 C         3.145304        -0.884271         0.417605
 C         1.961086        -1.886536         0.626647
 C         1.808930        -2.618619         2.059403
 C         2.473187        -1.649261         3.043147
 O         2.322678        -0.310325         2.817041
 C         2.351195         0.116174         1.412291
 H        -0.757743        -1.070478         0.765069
 H        -0.641047         0.635383         0.840884
 H        -0.438090        -0.188268        -0.740582
 H         4.176060        -1.044167         0.174203
 H         1.809245        -2.466334        -0.252082
 H         0.756197        -2.806707         2.143456
 H         2.212709        -3.660148         2.039039
 H         2.077535        -1.712439         4.106944
 H         3.510699        -1.975742         2.952126
 H         2.551267         1.197268         1.340836
