19
Iteration:  1577
 C        -0.239546        -0.204358         0.187488
 C         1.281540        -0.415275         0.475227
 O         2.299467        -0.188440        -0.692754
 C         3.064734        -0.912947         0.307314
 C         1.786408        -1.908550         0.744157
 C         1.885094        -2.623450         2.126118
 C         2.532667        -1.673698         3.045504
 O         2.267178        -0.328923         2.819069
 C         2.444026         0.097283         1.485661
 H        -0.684146        -0.792190         1.041777
 H        -0.379261         0.884100         0.246691
 H        -0.508806        -0.824839        -0.656359
 H         4.108753        -1.159645         0.109527
 H         1.429675        -2.534511        -0.108786
 H         0.906832        -2.913408         2.510100
 H         2.503743        -3.504133         2.018008
 H         2.144868        -1.901653         4.095629
 H         3.572055        -1.623152         3.140518
 H         2.714833         1.132852         1.307238
