19
Iteration:  3353
 C        -0.254528        -0.361744         0.193767
 C         1.265763        -0.536355         0.407225
 O         2.325603        -0.062435        -0.587922
 C         3.026966        -0.827245         0.453969
 C         1.953828        -1.911782         0.587992
 C         1.709838        -2.500027         2.066121
 C         2.543208        -1.700723         3.065005
 O         2.453986        -0.301241         2.828061
 C         2.307894         0.024133         1.507479
 H        -0.678154        -0.599427         1.146470
 H        -0.589680         0.631208        -0.107447
 H        -0.604151        -0.991838        -0.658769
 H         4.072506        -1.003354         0.360937
 H         1.716309        -2.602635        -0.246607
 H         0.653701        -2.766124         2.298677
 H         2.063569        -3.475853         1.920397
 H         2.211652        -1.950699         4.091046
 H         3.544607        -1.983075         2.914734
 H         2.444529         1.124178         1.249483
