19
Iteration:   901charge 0 multiplicity 1
 C        -0.058009        -0.116348         0.327967
 C         1.257723        -0.654142         0.446792
 O         2.202609        -0.220341        -0.696378
 C         3.081152        -0.795326         0.420445
 C         2.011106        -1.998478         0.642763
 C         1.778321        -2.525091         2.048815
 C         2.509063        -1.688272         3.079656
 O         2.353421        -0.324681         2.811725
 C         2.224926         0.096027         1.429043
 H        -0.446394        -0.128058         1.295399
 H         0.110512         0.778471        -0.217936
 H        -0.823073        -0.652921        -0.203132
 H         4.060738        -0.773725         0.025027
 H         1.735929        -2.733435        -0.108836
 H         0.621417        -2.618796         2.212970
 H         2.039108        -3.554335         2.130876
 H         2.197849        -1.837975         4.140126
 H         3.508960        -1.954319         3.035287
 H         2.383808         1.161774         1.282534
