19
Iteration:  4384charge 0 multiplicity 1
 C        -0.176605        -0.170539         0.215901
 C         1.238917        -0.634393         0.442882
 O         2.253938        -0.192165        -0.697928
 C         3.049639        -0.943983         0.369654
 C         1.940465        -1.961886         0.670396
 C         1.756170        -2.521853         2.140146
 C         2.673638        -1.621869         3.072931
 O         2.295300        -0.257642         2.886902
 C         2.291563         0.045619         1.406238
 H        -0.961638        -0.720307         0.716866
 H        -0.266101         0.942500         0.209605
 H        -0.457722        -0.319117        -0.837086
 H         4.151931        -1.120736         0.114215
 H         1.825112        -2.671308        -0.173053
 H         0.786051        -2.435392         2.672721
 H         2.208637        -3.613463         2.402115
 H         2.480722        -1.905771         4.136251
 H         3.690758        -1.595333         2.784224
 H         2.402302         1.130820         1.319239
