19
Iteration:  2155
 C        -0.201916        -0.270750         0.275093
 C         1.305394        -0.513653         0.413477
 O         2.268405        -0.133065        -0.646545
 C         3.086623        -0.927193         0.418748
 C         1.878544        -1.888296         0.627819
 C         1.760793        -2.521514         2.014019
 C         2.520239        -1.732013         3.053633
 O         2.372527        -0.276601         2.868639
 C         2.337294         0.092501         1.461408
 H        -0.666809        -0.520569         1.244729
 H        -0.265341         0.824113         0.143885
 H        -0.478910        -0.998390        -0.493582
 H         4.082020        -1.260179         0.356509
 H         1.855144        -2.587016        -0.268531
 H         0.594456        -2.374997         2.288936
 H         2.093230        -3.559674         1.888437
 H         2.175135        -2.042376         4.052904
 H         3.565177        -2.106195         3.081799
 H         2.484943         1.108212         1.167145
