19
Iteration:   676charge 0 multiplicity 1
 C        -0.159429        -0.024063         0.392876
 C         1.273521        -0.559342         0.333575
 O         2.242042        -0.285628        -0.681445
 C         3.045240        -0.945757         0.364117
 C         1.959878        -1.961937         0.632113
 C         1.848116        -2.600053         2.035123
 C         2.468393        -1.653807         3.087802
 O         2.195824        -0.267889         2.828782
 C         2.413519         0.094026         1.448969
 H        -0.274986         0.106623         1.488330
 H        -0.416835         0.969895        -0.002086
 H        -0.871647        -0.761556         0.075735
 H         4.138244        -1.132197         0.235295
 H         2.090674        -2.730463        -0.147504
 H         0.753923        -2.926356         2.312480
 H         2.589349        -3.534218         1.919850
 H         2.253922        -1.852534         4.163544
 H         3.669144        -1.822472         2.905606
 H         2.797018         1.139039         1.335660
