19
Iteration:  4897charge 0 multiplicity 1
 C        -0.108810        -0.118865         0.299361
 C         1.328504        -0.471366         0.475000
 O         2.230431        -0.272200        -0.666207
 C         3.078789        -0.883145         0.473873
 C         1.882046        -1.879877         0.721119
 C         1.925236        -2.633898         2.034765
 C         2.556264        -1.697235         2.968581
 O         2.184441        -0.258061         2.777710
 C         2.305116         0.069811         1.481642
 H        -0.664181        -0.654826         1.077120
 H        -0.337693         0.887263         0.106080
 H        -0.422739        -0.658569        -0.603370
 H         4.075179        -1.181980         0.154798
 H         1.516617        -2.608010        -0.077945
 H         0.795498        -2.898973         2.229034
 H         2.616359        -3.444347         1.775913
 H         2.087922        -1.925809         3.962415
 H         3.618162        -2.008947         3.077862
 H         2.403703         1.147525         1.250012
