19
Iteration:  1449charge 0 multiplicity 1
 C        -0.179208        -0.325795         0.307452
 C         1.269168        -0.454993         0.467177
 O         2.290361        -0.191429        -0.595204
 C         3.052935        -0.920719         0.417556
 C         1.906568        -1.886036         0.613230
 C         1.775138        -2.500891         2.018950
 C         2.476837        -1.624318         3.086144
 O         2.354529        -0.288956         2.749040
 C         2.409181        -0.009768         1.426792
 H        -0.547445        -0.406123         1.338849
 H        -0.626307         0.665443         0.147043
 H        -0.510505        -0.979757        -0.489545
 H         4.095303        -0.986402         0.265497
 H         1.660686        -2.516584        -0.198669
 H         0.661793        -2.470872         2.149717
 H         2.128028        -3.604110         2.078209
 H         2.054733        -1.733807         4.127939
 H         3.478123        -1.816462         3.135773
 H         2.700038         0.996584         1.119824
