19
Iteration:  3515
 C        -0.147572        -0.378093         0.338621
 C         1.301512        -0.600570         0.553797
 O         2.244933        -0.169141        -0.643289
 C         3.094442        -0.809588         0.397286
 C         1.968321        -1.956840         0.585862
 C         1.806282        -2.453848         1.924651
 C         2.304227        -1.660706         3.014180
 O         2.436663        -0.257701         2.855549
 C         2.365023         0.074588         1.525682
 H        -0.602543         0.073318         1.216236
 H        -0.224299         0.385803        -0.457493
 H        -0.838742        -1.059538        -0.197290
 H         4.061243        -1.018306        -0.096467
 H         1.827061        -2.586389        -0.335594
 H         0.689422        -2.708528         2.138001
 H         2.120887        -3.589740         2.061162
 H         1.824849        -1.671643         3.908791
 H         3.311838        -1.920171         3.214463
 H         2.561152         1.138397         1.262307
