19
Iteration:   778charge 0 multiplicity 1
 C        -0.198717        -0.168392         0.201646
 C         1.273341        -0.507444         0.463733
 O         2.231736        -0.230002        -0.621997
 C         3.037003        -0.894574         0.456348
 C         1.927049        -1.982673         0.682763
 C         1.675254        -2.575820         2.057221
 C         2.592311        -1.687235         3.020541
 O         2.396947        -0.239827         2.820725
 C         2.391212         0.093172         1.456912
 H        -0.825234        -0.860448         0.752728
 H        -0.589777         0.814604         0.381963
 H        -0.274290        -0.556380        -0.811264
 H         4.080181        -1.119882         0.079524
 H         1.877227        -2.559386        -0.233039
 H         0.565092        -2.444146         2.382759
 H         2.101021        -3.594070         2.192850
 H         2.496095        -1.879294         4.077948
 H         3.676812        -2.013710         2.692789
 H         2.401446         1.198393         1.423567
