19
Iteration:  1080charge 0 multiplicity 1
 C        -0.264859        -0.158826         0.383030
 C         1.274652        -0.533137         0.522362
 O         2.332379        -0.216853        -0.677925
 C         3.161263        -0.859784         0.389829
 C         1.945110        -1.956104         0.610785
 C         1.774979        -2.578374         2.051914
 C         2.431076        -1.671529         3.055711
 O         2.321579        -0.287766         2.764963
 C         2.350623         0.062863         1.388954
 H        -0.682069         0.058424         1.374768
 H        -0.597827         0.686141        -0.190870
 H        -0.570153        -1.092788        -0.029140
 H         4.238624        -0.861407         0.173306
 H         1.812204        -2.626351        -0.290697
 H         0.652314        -2.724594         2.349126
 H         2.303909        -3.527188         2.167701
 H         2.025823        -1.908622         4.015133
 H         3.642766        -1.916331         3.246282
 H         2.575037         1.116074         1.141401
