19
Iteration:  1062charge 0 multiplicity 1
 C        -0.149724        -0.274273         0.386436
 C         1.326488        -0.447695         0.411189
 O         2.234307        -0.208952        -0.629050
 C         3.029991        -0.966638         0.380255
 C         1.898759        -1.847679         0.684896
 C         1.835371        -2.608601         1.959316
 C         2.446313        -1.622163         3.041604
 O         2.224321        -0.233648         2.764846
 C         2.482010         0.057977         1.463568
 H        -0.416508        -0.148411         1.494412
 H        -0.192595         0.642510        -0.238366
 H        -0.806026        -1.067148        -0.089356
 H         4.078209        -1.393741         0.227931
 H         1.711634        -2.593350        -0.068806
 H         0.880377        -2.913351         2.161640
 H         2.384926        -3.621293         1.898878
 H         2.073523        -1.718826         4.060868
 H         3.496681        -1.835299         3.164328
 H         2.951068         1.036796         1.469050
