19
Iteration:  2469charge 0 multiplicity 1
 C        -0.229008        -0.255198         0.258527
 C         1.257550        -0.515894         0.434099
 O         2.322725        -0.105079        -0.518645
 C         3.041835        -0.940031         0.487955
 C         1.870492        -1.916158         0.550899
 C         1.756228        -2.615830         1.976715
 C         2.542568        -1.670886         2.997014
 O         2.337467        -0.239452         2.866808
 C         2.403121         0.043750         1.442604
 H        -0.790289        -0.189736         1.192525
 H        -0.392049         0.624543        -0.325562
 H        -0.558843        -1.041825        -0.380817
 H         4.065755        -1.299771         0.364900
 H         1.784628        -2.468326        -0.370632
 H         0.592314        -2.751480         2.203428
 H         2.286997        -3.567041         1.870878
 H         2.385354        -1.963216         4.027130
 H         3.662510        -1.646559         2.866848
 H         2.623491         1.055204         1.399251
