19
Iteration:  2618
 C        -0.219391        -0.096978         0.205373
 C         1.253685        -0.587711         0.386096
 O         2.240670        -0.185705        -0.588980
 C         3.083766        -0.844491         0.464182
 C         2.040616        -1.981359         0.593230
 C         1.785780        -2.541236         2.016711
 C         2.561424        -1.777289         3.046982
 O         2.338132        -0.279403         2.855991
 C         2.243654         0.026851         1.499564
 H        -0.805412        -0.225460         1.180479
 H        -0.239253         0.989237        -0.097174
 H        -0.821217        -0.612898        -0.541788
 H         4.199906        -0.853532         0.332853
 H         1.983058        -2.592576        -0.321831
 H         0.762703        -2.605185         2.180673
 H         2.195048        -3.617485         2.212074
 H         2.342270        -1.858902         4.106922
 H         3.698867        -1.886987         2.981871
 H         2.363808         1.118845         1.335550
