19
Iteration:  2512
 C        -0.166168        -0.193908         0.265980
 C         1.321254        -0.474415         0.447484
 O         2.131911        -0.198166        -0.701802
 C         3.173043        -0.833602         0.503582
 C         2.049274        -1.879145         0.625044
 C         1.766214        -2.576728         1.985891
 C         2.486833        -1.766855         3.093181
 O         2.252526        -0.354099         2.852566
 C         2.402071         0.081540         1.440020
 H        -0.737612        -0.380624         1.199636
 H        -0.428015         0.830129         0.056386
 H        -0.695570        -0.814382        -0.436033
 H         4.220633        -0.839492         0.130681
 H         1.998506        -2.562345        -0.195875
 H         0.584972        -2.469357         2.194308
 H         2.127513        -3.570413         2.074751
 H         2.202136        -1.851680         4.113434
 H         3.523130        -2.112299         2.918570
 H         2.597203         1.113129         1.382949
