19
Iteration:  4598charge 0 multiplicity 1
 C        -0.202732        -0.348438         0.152632
 C         1.231148        -0.497944         0.390180
 O         2.196672        -0.204771        -0.668344
 C         3.064359        -0.777089         0.410545
 C         1.889272        -1.894182         0.699743
 C         1.721472        -2.532449         2.098038
 C         2.574663        -1.669936         3.117925
 O         2.468263        -0.304725         2.837641
 C         2.388182         0.072597         1.466323
 H        -0.729314        -1.124192         0.692269
 H        -0.452884         0.695041         0.308125
 H        -0.381096        -0.611459        -0.878791
 H         4.110293        -1.038313         0.202227
 H         1.751089        -2.581301        -0.145363
 H         0.721643        -2.387055         2.656023
 H         1.850667        -3.620081         2.095631
 H         2.239586        -1.802265         4.170114
 H         3.590225        -2.000449         3.084368
 H         2.603384         1.185433         1.267400
