19
Iteration:  1135
 C        -0.204230        -0.200296         0.199208
 C         1.278999        -0.531430         0.580427
 O         2.308430        -0.210972        -0.618272
 C         3.002714        -0.888579         0.349900
 C         1.931078        -1.903358         0.647859
 C         1.786814        -2.551026         2.065259
 C         2.572116        -1.690232         3.093207
 O         2.345415        -0.289233         2.789866
 C         2.311401         0.072295         1.449810
 H        -0.848069        -0.594804         0.982181
 H        -0.193264         0.815416        -0.078621
 H        -0.513554        -0.762769        -0.659648
 H         4.048467        -1.063163         0.040281
 H         1.648571        -2.517492        -0.242719
 H         0.676107        -2.583530         2.371977
 H         2.040090        -3.615792         2.202760
 H         2.444730        -1.904720         4.108451
 H         3.574706        -1.798784         2.862771
 H         2.452544         1.131932         1.228921
