19
Iteration:  2460
 C        -0.169761        -0.210018         0.229819
 C         1.265130        -0.482599         0.458952
 O         2.239982        -0.177517        -0.565366
 C         3.037061        -0.890491         0.479872
 C         1.955547        -1.931999         0.544591
 C         1.764491        -2.625656         1.956148
 C         2.590159        -1.708949         3.000339
 O         2.281386        -0.237600         2.862696
 C         2.389460         0.065533         1.527429
 H        -0.780297        -0.155291         1.120306
 H        -0.283057         0.774906        -0.207744
 H        -0.730578        -0.958786        -0.342574
 H         4.049819        -1.104755         0.225029
 H         1.899178        -2.698748        -0.229715
 H         0.773963        -2.534830         2.288478
 H         2.087236        -3.744479         1.997543
 H         2.255780        -1.771239         4.058392
 H         3.669845        -2.038234         2.871582
 H         2.665836         1.078092         1.285639
