19
Iteration:   810
 C        -0.125680        -0.041424         0.309864
 C         1.255595        -0.614881         0.435358
 O         2.170844        -0.287008        -0.677521
 C         3.096937        -0.858850         0.480221
 C         1.969779        -1.978239         0.645304
 C         1.812672        -2.447401         2.043607
 C         2.603885        -1.700864         3.114543
 O         2.319689        -0.321464         2.780052
 C         2.287166         0.023430         1.410969
 H        -0.856373        -0.498656         0.937963
 H        -0.193204         0.995804         0.170889
 H        -0.509300        -0.371033        -0.612247
 H         4.141240        -0.920148         0.050403
 H         1.993911        -2.583539        -0.233773
 H         0.748955        -2.463523         2.304283
 H         1.986624        -3.566531         2.114381
 H         2.148103        -1.922134         4.044203
 H         3.639903        -1.856362         3.170723
 H         2.183860         1.124459         1.319994
