19
Iteration:  1761
 C        -0.174740        -0.225275         0.238974
 C         1.271094        -0.466873         0.536660
 O         2.291661        -0.185798        -0.572186
 C         2.986760        -0.971836         0.479114
 C         1.856830        -1.909703         0.612645
 C         1.818497        -2.525171         1.978219
 C         2.563048        -1.639990         2.969649
 O         2.291743        -0.284932         2.796651
 C         2.400952         0.056643         1.448590
 H        -0.769584        -0.589501         1.080280
 H        -0.454333         0.787183         0.055986
 H        -0.431387        -0.926068        -0.478700
 H         4.045033        -1.094826         0.382914
 H         1.625697        -2.735970        -0.115191
 H         0.802845        -2.741177         2.317827
 H         2.480928        -3.318497         2.162722
 H         2.269617        -1.947176         3.971018
 H         3.598249        -1.913163         2.909721
 H         2.762498         0.993465         1.142139
