19
Iteration:  2253
 C        -0.141345        -0.034192         0.255968
 C         1.227300        -0.464090         0.480446
 O         2.240592        -0.299949        -0.613372
 C         3.070881        -0.906655         0.493365
 C         1.914694        -1.964142         0.614864
 C         1.915440        -2.634937         1.961212
 C         2.518421        -1.667050         3.021479
 O         2.239421        -0.307276         2.818535
 C         2.344582         0.081481         1.478873
 H        -0.617701        -0.377140         1.219836
 H        -0.267300         1.034279        -0.091350
 H        -0.457355        -0.785224        -0.517685
 H         4.081945        -0.931890         0.234145
 H         1.684731        -2.534877        -0.323512
 H         0.878681        -2.768790         2.344002
 H         2.504729        -3.431086         2.098115
 H         2.148910        -2.019415         3.989730
 H         3.582586        -1.740151         2.911191
 H         2.511823         1.131522         1.365919
