19
Iteration:  1751charge 0 multiplicity 1
 C        -0.166357        -0.163143         0.241950
 C         1.301059        -0.494867         0.473244
 O         2.185777        -0.195462        -0.623505
 C         3.117699        -0.884483         0.469176
 C         1.860751        -1.954169         0.654162
 C         1.832797        -2.611014         2.062996
 C         2.554867        -1.647423         3.021383
 O         2.268587        -0.305992         2.779543
 C         2.368891         0.047691         1.447768
 H        -0.784630        -0.384967         1.149363
 H        -0.163011         0.891702        -0.063481
 H        -0.435256        -0.664524        -0.666961
 H         4.152300        -1.010556         0.301936
 H         1.652400        -2.661310        -0.219614
 H         0.808219        -2.781952         2.364426
 H         2.302693        -3.552187         1.957176
 H         2.329360        -1.820144         4.128016
 H         3.688954        -1.779315         2.829890
 H         2.672000         1.065527         1.461170
