19
Iteration:   355
 C        -0.089376        -0.150610         0.276103
 C         1.323062        -0.424030         0.542114
 O         2.274883        -0.256572        -0.652722
 C         3.007131        -1.000515         0.342673
 C         1.755749        -1.905403         0.664326
 C         1.842114        -2.689660         2.072538
 C         2.544278        -1.648023         3.059407
 O         2.282449        -0.151546         2.795110
 C         2.375241         0.031926         1.441220
 H        -0.685590        -0.800151         0.922788
 H        -0.383425         0.873471         0.510665
 H        -0.313405        -0.522935        -0.775640
 H         4.124542        -1.236464         0.174650
 H         1.469573        -2.654557        -0.156289
 H         0.798643        -2.864704         2.346123
 H         2.398234        -3.647997         1.717043
 H         2.279842        -1.779470         4.120380
 H         3.591956        -1.748889         2.931655
 H         2.636942         1.142677         1.337127
