19
Iteration:  4871
 C        -0.254503        -0.006145         0.350416
 C         1.233862        -0.569960         0.386918
 O         2.290928        -0.246874        -0.652139
 C         3.056430        -0.900713         0.366436
 C         2.008385        -1.993430         0.615692
 C         1.998267        -2.599903         2.053704
 C         2.500499        -1.636023         3.129398
 O         2.148015        -0.280122         2.831006
 C         2.372981        -0.002168         1.419559
 H        -0.866469        -0.612407         0.997455
 H        -0.165633         1.069783         0.730208
 H        -0.738549         0.099751        -0.632201
 H         4.067740        -1.051933        -0.013177
 H         1.843839        -2.737423        -0.112248
 H         1.003766        -2.869832         2.100650
 H         2.684154        -3.455452         1.906595
 H         2.046173        -1.865494         4.158100
 H         3.478055        -1.903950         3.178902
 H         2.564058         1.045806         1.143874
