19
Iteration:  3908
 C        -0.232314        -0.368306         0.217990
 C         1.235252        -0.587729         0.346894
 O         2.235213        -0.111000        -0.634425
 C         3.086195        -0.787285         0.373495
 C         1.928863        -1.973967         0.598434
 C         1.669371        -2.528124         2.107053
 C         2.533760        -1.608623         3.218015
 O         2.475072        -0.247392         2.810802
 C         2.414164        -0.029025         1.441859
 H        -0.942190        -0.857346         0.868866
 H        -0.436785         0.725473         0.325447
 H        -0.672813        -0.468873        -0.779940
 H         4.112552        -1.002658         0.037409
 H         1.861870        -2.795062        -0.143121
 H         0.633367        -2.410250         2.569873
 H         2.174669        -3.586989         2.103102
 H         2.230514        -1.733232         4.208617
 H         3.539551        -1.820724         3.277351
 H         2.453297         1.074124         1.249135
