19
Iteration:   469
 C        -0.130420        -0.125171         0.370282
 C         1.306129        -0.464983         0.381350
 O         2.251653        -0.263469        -0.622325
 C         3.074228        -0.919907         0.370256
 C         1.895542        -1.942164         0.617735
 C         1.804680        -2.556515         2.053816
 C         2.458420        -1.673933         3.126826
 O         2.289317        -0.286397         2.774652
 C         2.352778         0.034565         1.386310
 H        -0.416475         0.162414         1.432573
 H        -0.414033         0.740400        -0.295919
 H        -0.625985        -1.067638         0.085611
 H         4.128042        -0.938703         0.157468
 H         1.845162        -2.667521        -0.187680
 H         0.772218        -2.838619         2.366099
 H         2.404543        -3.393865         2.085838
 H         2.188867        -1.820970         4.180725
 H         3.565858        -1.855800         3.031331
 H         2.691200         1.044415         1.208634
