19
Iteration:  4116
 C        -0.236215        -0.166773         0.261152
 C         1.244968        -0.537833         0.384540
 O         2.283626        -0.377070        -0.679507
 C         3.050728        -0.854137         0.482864
 C         1.883907        -1.892702         0.660453
 C         1.837513        -2.547548         2.061489
 C         2.614292        -1.647211         3.089186
 O         2.282655        -0.243451         2.813271
 C         2.363812         0.111410         1.398530
 H        -0.599186        -1.005384         0.890428
 H        -0.465608         0.722540         0.853717
 H        -0.669277        -0.307926        -0.727556
 H         4.052532        -1.115660         0.125837
 H         1.870325        -2.643539        -0.148856
 H         0.773303        -2.537924         2.238275
 H         2.348815        -3.544078         2.182774
 H         2.313712        -1.868188         4.090263
 H         3.687213        -1.819244         3.214613
 H         2.453836         1.254789         1.262863
