19
Iteration:  3305charge 0 multiplicity 1
 C        -0.095758        -0.172349         0.446987
 C         1.312666        -0.582684         0.504504
 O         2.216072        -0.201384        -0.634989
 C         3.168100        -0.793225         0.303024
 C         2.028626        -1.928020         0.672943
 C         1.860799        -2.653873         2.007298
 C         2.383330        -1.650054         3.018794
 O         2.169000        -0.302481         2.783403
 C         2.330685         0.115666         1.421452
 H        -0.581084        -0.235875         1.464570
 H        -0.206142         0.798074        -0.035907
 H        -0.519816        -0.767097        -0.337297
 H         4.289584        -0.810112         0.104407
 H         1.818014        -2.584526        -0.194963
 H         0.849682        -2.986202         2.069553
 H         2.260912        -3.828479         1.980710
 H         2.077843        -2.012163         3.957064
 H         3.521893        -1.915541         2.936214
 H         2.397109         1.171635         1.367076
