19
Iteration:  1404charge 0 multiplicity 1
 C        -0.154052        -0.053246         0.274632
 C         1.243419        -0.616215         0.444130
 O         2.159993        -0.340759        -0.714534
 C         3.134038        -0.841700         0.459572
 C         2.019864        -1.992885         0.650833
 C         1.825010        -2.502377         1.993377
 C         2.517388        -1.671207         3.047592
 O         2.321768        -0.262668         2.851223
 C         2.263321         0.033602         1.431211
 H        -0.693858        -0.600577         1.100680
 H        -0.148426         0.996734         0.633955
 H        -0.359020        -0.236254        -0.753435
 H         4.209349        -0.810913         0.381016
 H         1.810193        -2.570429        -0.206222
 H         0.791990        -2.434962         2.411219
 H         2.297780        -3.550339         2.242557
 H         2.094726        -1.791510         4.118618
 H         3.582759        -1.977684         3.081242
 H         2.449546         1.141633         1.365611
