19
Iteration:  2948
 C        -0.179903        -0.167766         0.341534
 C         1.297063        -0.562444         0.438719
 O         2.267235        -0.193290        -0.607193
 C         3.089467        -0.845418         0.499671
 C         1.950949        -1.988272         0.641020
 C         1.834470        -2.635232         1.912947
 C         2.487302        -1.703354         2.982047
 O         2.264425        -0.217459         2.810368
 C         2.316314         0.094499         1.477887
 H        -0.717483        -0.739504         1.057969
 H        -0.249888         0.905325         0.449321
 H        -0.550950        -0.541090        -0.550939
 H         4.164762        -0.992284         0.234538
 H         1.829130        -2.589605        -0.266180
 H         0.822389        -2.984907         2.088272
 H         2.555675        -3.516056         2.052245
 H         2.155263        -1.805950         4.005197
 H         3.511930        -1.827365         2.914523
 H         2.357555         1.152442         1.424575
