19
Iteration:  3765
 C        -0.145448        -0.069616         0.166855
 C         1.206987        -0.487836         0.437387
 O         2.225661        -0.271811        -0.664619
 C         3.040719        -0.892524         0.400512
 C         1.913537        -1.924498         0.617555
 C         1.967823        -2.571439         2.084165
 C         2.657588        -1.671347         3.124669
 O         2.209964        -0.337332         2.857304
 C         2.260185         0.022281         1.463995
 H        -0.598439         0.293508         1.089378
 H        -0.145112         0.796061        -0.581462
 H        -0.859868        -0.868916        -0.186974
 H         4.141774        -1.179223         0.272371
 H         1.626704        -2.663623        -0.160458
 H         0.877311        -2.702591         2.377366
 H         2.567297        -3.527965         1.927444
 H         2.444407        -1.842963         4.161897
 H         3.790980        -1.724499         3.190393
 H         2.297864         1.092153         1.470416
