19
Iteration:  2099charge 0 multiplicity 1
 C        -0.158443        -0.109055         0.265871
 C         1.268621        -0.517904         0.447650
 O         2.265023        -0.267816        -0.621877
 C         3.032188        -0.862054         0.442532
 C         1.862411        -1.906384         0.624345
 C         1.874281        -2.588661         1.967422
 C         2.518105        -1.684131         3.050725
 O         2.309523        -0.307382         2.817310
 C         2.326223         0.062337         1.493229
 H        -0.623122        -0.184735         1.300843
 H        -0.222178         0.917948        -0.241795
 H        -0.622905        -0.816376        -0.451717
 H         4.121753        -0.966333         0.398484
 H         1.768706        -2.574764        -0.283705
 H         0.825838        -3.050815         2.367998
 H         2.334881        -3.595199         1.992923
 H         2.249836        -1.775628         4.126129
 H         3.646153        -1.808291         3.017568
 H         2.579941         1.116855         1.330113
