19
Iteration:  3800
 C        -0.159557         0.057179         0.219685
 C         1.279273        -0.494474         0.522774
 O         2.202389        -0.371259        -0.650476
 C         3.089026        -0.871226         0.446106
 C         1.976482        -1.987243         0.687996
 C         2.029100        -2.720030         2.065983
 C         2.566133        -1.625090         3.067923
 O         2.114742        -0.291162         2.776227
 C         2.224089         0.087157         1.446456
 H        -0.521289         0.363547         1.240309
 H        -0.009595         0.997171        -0.387442
 H        -0.800520        -0.732012        -0.263969
 H         4.051369        -1.073827        -0.003212
 H         1.801913        -2.565815        -0.247101
 H         1.113828        -3.232545         2.325972
 H         2.703179        -3.577457         2.044151
 H         2.412881        -1.923140         4.098661
 H         3.593360        -1.429069         2.564870
 H         2.449517         1.199221         1.322736
