19
Iteration:  4514charge 0 multiplicity 1
 C        -0.191616        -0.116704         0.356489
 C         1.302649        -0.504680         0.458743
 O         2.256247        -0.345355        -0.697546
 C         3.016677        -0.874991         0.430701
 C         1.939838        -1.893285         0.656437
 C         1.927898        -2.643196         2.030003
 C         2.566052        -1.634786         3.087987
 O         2.114007        -0.285088         2.777697
 C         2.386960         0.080445         1.372223
 H        -0.473715         0.065230         1.416574
 H        -0.232604         0.998934         0.004864
 H        -0.640498        -0.832983        -0.383706
 H         4.008957        -1.161976         0.367070
 H         1.683602        -2.640168        -0.131309
 H         0.999182        -2.873957         2.484567
 H         2.593628        -3.497735         1.978617
 H         2.280787        -1.641464         4.198630
 H         3.765409        -1.599040         3.148706
 H         2.634986         1.100498         1.101488
