19
Iteration:   884charge 0 multiplicity 1
 C        -0.172991        -0.079811         0.374639
 C         1.259109        -0.531962         0.424823
 O         2.243072        -0.239106        -0.683470
 C         3.118843        -0.827621         0.327962
 C         1.994199        -1.935530         0.665541
 C         1.806125        -2.616212         2.092765
 C         2.475656        -1.689969         3.105564
 O         2.244147        -0.284484         2.769929
 C         2.362808        -0.015940         1.406491
 H        -0.616429         0.105941         1.454675
 H        -0.279258         0.911645        -0.217359
 H        -0.831496        -0.810999        -0.174796
 H         4.233196        -1.051157         0.277791
 H         2.074489        -2.612520        -0.227441
 H         0.778855        -2.797662         2.364649
 H         2.358626        -3.640253         2.052043
 H         2.189918        -1.705677         4.162025
 H         3.664746        -1.973150         2.930989
 H         2.438179         1.104002         1.400843
