19
Iteration:   755charge 0 multiplicity 1
 C        -0.189150        -0.282740         0.174351
 C         1.214337        -0.479232         0.474072
 O         2.338479        -0.188935        -0.622936
 C         2.967689        -0.958409         0.438939
 C         1.753782        -1.822142         0.692442
 C         1.807198        -2.459761         2.015217
 C         2.593293        -1.667349         3.077551
 O         2.365610        -0.293762         2.797763
 C         2.416016        -0.021353         1.455335
 H        -0.777179        -0.855102         0.907111
 H        -0.514730         0.703485         0.434044
 H        -0.491995        -0.729160        -0.748724
 H         4.077506        -1.171261         0.178261
 H         1.514259        -2.354708        -0.223264
 H         0.742312        -2.423930         2.518949
 H         2.339647        -3.505441         1.934806
 H         2.279362        -1.965232         4.051322
 H         3.797193        -1.865930         3.026869
 H         2.945467         0.976147         1.373994
