19
Iteration:   159
 C        -0.182630        -0.098396         0.353177
 C         1.291257        -0.522722         0.438531
 O         2.225298        -0.288256        -0.610023
 C         3.080729        -0.926564         0.446391
 C         1.939159        -1.976967         0.662571
 C         1.782474        -2.542066         2.017361
 C         2.528829        -1.646680         2.980983
 O         2.286569        -0.260948         2.779543
 C         2.415077         0.034690         1.429936
 H        -0.737224        -0.218530         1.310933
 H        -0.360211         0.927532        -0.012623
 H        -0.643950        -0.637309        -0.529233
 H         4.170281        -1.015058         0.204522
 H         1.649882        -2.659030        -0.206028
 H         0.708994        -2.571426         2.355877
 H         2.218285        -3.503961         2.133303
 H         2.117011        -1.814759         3.986657
 H         3.540447        -1.864264         2.998725
 H         2.823255         1.075005         1.283034
