19
Iteration:   394charge 0 multiplicity 1
 C        -0.148769        -0.032926         0.257046
 C         1.220687        -0.624717         0.393815
 O         2.235698        -0.312962        -0.700945
 C         3.042916        -0.777232         0.374205
 C         2.019971        -1.966151         0.676914
 C         1.731885        -2.534547         2.080367
 C         2.608573        -1.757600         3.138047
 O         2.399197        -0.280711         2.844630
 C         2.223324         0.028634         1.430049
 H        -0.664201        -0.069642         1.269422
 H        -0.066332         1.004292        -0.101108
 H        -0.621726        -0.488196        -0.580439
 H         4.113757        -0.836405         0.155232
 H         1.841679        -2.610953        -0.146978
 H         0.696133        -2.325889         2.350789
 H         1.814139        -3.586493         2.299801
 H         2.343877        -1.926451         4.161922
 H         3.730436        -2.002843         2.997910
 H         2.208718         1.097858         1.272582
