19
Iteration:    12charge 0 multiplicity 1
 C        -0.045483        -0.139487         0.268081
 C         1.323378        -0.477105         0.452643
 O         2.213633        -0.230502        -0.693616
 C         3.066631        -1.036371         0.390008
 C         1.803861        -1.922316         0.683731
 C         1.799395        -2.553799         2.069287
 C         2.518899        -1.696020         3.002065
 O         2.291468        -0.191174         2.890546
 C         2.369164         0.075841         1.405372
 H        -0.523488        -0.660560         1.121024
 H        -0.290145         0.924450         0.312122
 H        -0.420454        -0.632476        -0.624279
 H         4.017528        -1.517317         0.279498
 H         1.288879        -2.584840         0.022932
 H         0.805920        -2.786417         2.462205
 H         2.349487        -3.508354         2.073841
 H         2.304350        -1.945004         4.029296
 H         3.579864        -1.842767         2.822897
 H         2.709210         1.087876         1.278847
