19
Iteration:  4824charge 0 multiplicity 1
 C        -0.202755        -0.228233         0.325564
 C         1.281065        -0.492039         0.482308
 O         2.224713        -0.247160        -0.654260
 C         3.150571        -0.845895         0.385426
 C         1.953265        -1.902975         0.695523
 C         1.822775        -2.639123         2.057680
 C         2.414688        -1.678377         3.039286
 O         2.292262        -0.267205         2.768872
 C         2.397541         0.119671         1.434833
 H        -0.840556        -1.073913         0.797790
 H        -0.493734         0.723677         0.842646
 H        -0.511040        -0.028875        -0.736052
 H         4.286725        -0.982064         0.208600
 H         1.977851        -2.548376        -0.219394
 H         0.785174        -2.854808         2.353212
 H         2.408104        -3.554970         1.824191
 H         2.052476        -1.949829         3.994097
 H         3.491922        -1.876722         2.893527
 H         2.698520         1.171250         1.345796
