19
Iteration:  4419
 C        -0.228584        -0.364994         0.316981
 C         1.258808        -0.526639         0.506098
 O         2.241153        -0.274184        -0.694929
 C         3.121096        -0.897440         0.426607
 C         1.923090        -1.872878         0.649780
 C         1.715579        -2.494578         2.048154
 C         2.489890        -1.652972         3.042566
 O         2.436900        -0.228469         2.793535
 C         2.351496         0.170698         1.411883
 H        -0.864616        -0.530427         1.160345
 H        -0.350285         0.648863         0.054485
 H        -0.294432        -0.993390        -0.537686
 H         4.235659        -1.273836         0.357945
 H         1.863296        -2.523452        -0.230519
 H         0.603576        -2.561423         2.262045
 H         2.106920        -3.607664         2.069848
 H         2.051445        -1.788081         4.007815
 H         3.467152        -2.073959         3.169001
 H         2.693607         1.207202         1.466247
