19
Iteration:   369
 C        -0.213923        -0.079257         0.268593
 C         1.251424        -0.530616         0.445778
 O         2.211480        -0.307802        -0.620239
 C         3.054003        -0.951837         0.491297
 C         1.928890        -1.939889         0.683939
 C         1.818105        -2.541833         2.021259
 C         2.559701        -1.683971         3.026998
 O         2.315848        -0.252608         2.805514
 C         2.409615         0.080552         1.395788
 H        -0.857327        -0.532430         1.031714
 H        -0.293174         1.040564         0.257729
 H        -0.486200        -0.322243        -0.793505
 H         4.068244        -1.170566         0.221611
 H         1.687181        -2.538095        -0.218581
 H         0.810445        -2.809432         2.346117
 H         2.327920        -3.435421         2.174037
 H         2.251192        -1.914416         4.071576
 H         3.570872        -1.886387         2.965632
 H         2.723199         1.084936         1.162738
