19
Iteration:  2371charge 0 multiplicity 1
 C        -0.155216        -0.183018         0.296300
 C         1.361996        -0.404566         0.483177
 O         2.298128        -0.158093        -0.669006
 C         3.052465        -0.988381         0.333922
 C         1.791568        -1.950086         0.649988
 C         1.886700        -2.596486         2.013407
 C         2.501374        -1.663787         3.047178
 O         2.194576        -0.284243         2.886358
 C         2.381272         0.035702         1.463886
 H        -0.538145        -0.805574         1.116442
 H        -0.445919         0.861835         0.310067
 H        -0.396336        -0.703772        -0.614661
 H         4.090727        -1.069600         0.014631
 H         1.553233        -2.534237        -0.211771
 H         0.923335        -2.822144         2.164756
 H         2.646007        -3.495552         2.034177
 H         2.011402        -1.812168         3.984540
 H         3.644663        -1.759588         3.093229
 H         2.715902         1.019619         1.364173
