19
Iteration:  4411
 C        -0.195682        -0.297729         0.256675
 C         1.266220        -0.538971         0.466357
 O         2.221088        -0.281906        -0.630672
 C         3.063670        -0.888983         0.454772
 C         1.943775        -1.860096         0.670583
 C         1.716885        -2.497065         2.025522
 C         2.516639        -1.624384         3.051065
 O         2.417185        -0.260187         2.783118
 C         2.390682         0.069422         1.403917
 H        -0.683898        -0.810580         1.106954
 H        -0.454346         0.746082         0.093845
 H        -0.511777        -0.995343        -0.565468
 H         4.111797        -1.030005         0.186739
 H         1.850236        -2.460193        -0.246300
 H         0.687365        -2.493353         2.436018
 H         1.982324        -3.462328         2.212290
 H         2.147162        -1.789413         4.062003
 H         3.653424        -1.791705         3.080635
 H         2.517636         1.204810         1.430181
