19
Iteration:  1730charge 0 multiplicity 1
 C        -0.135541         0.008573         0.228264
 C         1.244410        -0.573171         0.469302
 O         2.219163        -0.327997        -0.706948
 C         3.017079        -0.783290         0.326420
 C         2.047886        -1.934644         0.686934
 C         1.865132        -2.597417         2.081848
 C         2.600463        -1.762783         3.097906
 O         2.220954        -0.328243         2.871824
 C         2.252155         0.097242         1.434359
 H        -0.623970        -0.187751         1.255018
 H         0.001976         1.122037         0.017116
 H        -0.657843        -0.441050        -0.643263
 H         4.034868        -0.913354         0.139551
 H         1.993850        -2.750665        -0.074367
 H         0.804846        -2.610138         2.279490
 H         2.247031        -3.580030         2.141837
 H         2.240158        -2.025948         4.189993
 H         3.780140        -1.955990         2.983649
 H         2.367419         1.172719         1.356536
