19
Iteration:  2378
 C        -0.134569        -0.207453         0.309129
 C         1.294066        -0.475371         0.489834
 O         2.322556        -0.168905        -0.629827
 C         3.035474        -0.949865         0.326131
 C         1.774121        -1.949934         0.604459
 C         1.942416        -2.616211         1.960461
 C         2.485806        -1.639246         3.031760
 O         2.170472        -0.224369         2.926592
 C         2.433638         0.037206         1.447204
 H        -0.601444        -0.692366         1.175373
 H        -0.229345         0.886748         0.329224
 H        -0.326031        -0.543295        -0.713323
 H         4.152940        -1.240882         0.239480
 H         1.232105        -2.548365        -0.172680
 H         0.887111        -3.022417         2.392470
 H         2.502543        -3.471581         1.901846
 H         2.134456        -1.928203         4.048613
 H         3.560612        -1.827607         3.056371
 H         2.758148         1.086824         1.154237
