19
Iteration:  3337charge 0 multiplicity 1
 C        -0.224113        -0.302134         0.274267
 C         1.243252        -0.518859         0.331189
 O         2.239103        -0.169512        -0.634327
 C         3.122694        -0.847837         0.477187
 C         1.988385        -1.891089         0.603353
 C         1.795147        -2.509729         1.925738
 C         2.495574        -1.724910         3.093278
 O         2.371698        -0.290269         2.889728
 C         2.322314         0.067519         1.459406
 H        -0.583061        -0.415986         1.357904
 H        -0.610582         0.718977         0.046863
 H        -0.787890        -1.000901        -0.370962
 H         4.238693        -0.868125         0.259576
 H         2.049052        -2.647623        -0.187311
 H         0.765001        -2.307710         2.194411
 H         2.028322        -3.680923         2.197282
 H         1.910483        -1.916971         3.992595
 H         3.723139        -2.101507         3.069335
 H         2.513524         1.095473         1.562855
