19
Iteration:  4711charge 0 multiplicity 1
 C        -0.207985        -0.049918         0.262031
 C         1.281542        -0.553862         0.550892
 O         2.243697        -0.188710        -0.622708
 C         3.083194        -0.943320         0.404923
 C         1.892591        -1.998063         0.611562
 C         2.024245        -2.657132         2.026576
 C         2.557968        -1.646970         3.070850
 O         2.167988        -0.268799         2.777312
 C         2.322964         0.052395         1.427939
 H        -0.626215         0.292204         1.215822
 H        -0.084730         0.786370        -0.473259
 H        -0.937604        -0.763341        -0.199220
 H         4.087647        -1.226013         0.272630
 H         1.538591        -2.736587        -0.179072
 H         0.942349        -2.919845         2.389416
 H         2.629898        -3.500170         1.776661
 H         2.114927        -1.821625         4.072201
 H         3.642895        -1.551588         3.146156
 H         2.582090         1.111362         1.432909
