19
Iteration:    50
 C        -0.251224        -0.031222         0.257681
 C         1.258466        -0.511123         0.500068
 O         2.279332        -0.270876        -0.688946
 C         3.083282        -1.015134         0.465376
 C         1.880067        -1.921905         0.731832
 C         1.847419        -2.514229         2.110922
 C         2.575488        -1.695900         3.049724
 O         2.287555        -0.281048         2.754151
 C         2.406908         0.032060         1.333189
 H        -0.961477        -0.849293         0.630087
 H        -0.514013         0.886546         0.817136
 H        -0.485690         0.037338        -0.856365
 H         4.184167        -1.151696         0.310921
 H         1.632707        -2.679179        -0.078754
 H         0.684591        -2.476695         2.439306
 H         2.115213        -3.587438         2.174023
 H         2.179570        -1.928054         4.081147
 H         3.780193        -1.862009         3.082150
 H         2.647454         1.118618         1.153293
