19
Iteration:   222
 C        -0.150553        -0.113310         0.251690
 C         1.269700        -0.464087         0.512490
 O         2.270539        -0.229731        -0.634527
 C         3.009795        -0.966889         0.449900
 C         1.841592        -1.943241         0.724284
 C         1.832748        -2.612077         2.017408
 C         2.514753        -1.670343         2.979296
 O         2.315811        -0.245376         2.806906
 C         2.384009         0.073368         1.424924
 H        -0.612484         0.380353         1.157777
 H        -0.223966         0.532771        -0.632180
 H        -0.633900        -1.071889         0.071989
 H         4.087838        -1.279467         0.221328
 H         1.544689        -2.581545        -0.156868
 H         0.857904        -2.956239         2.286349
 H         2.431797        -3.566365         1.970638
 H         2.184441        -1.959512         3.971898
 H         3.705244        -1.847957         2.894555
 H         2.784273         1.104890         1.324391
