19
Iteration:  4324
 C        -0.151365        -0.064493         0.223850
 C         1.261125        -0.528832         0.476480
 O         2.245403        -0.324862        -0.660811
 C         3.010001        -0.972922         0.370855
 C         1.905413        -1.959827         0.683164
 C         1.977384        -2.532140         2.086715
 C         2.613368        -1.596969         3.137644
 O         2.187566        -0.289575         2.800894
 C         2.289146         0.058051         1.400526
 H        -0.951360        -0.449136         0.938829
 H        -0.244919         1.037525         0.368208
 H        -0.393124        -0.440454        -0.810462
 H         4.044427        -0.979376         0.087965
 H         1.533077        -2.566917        -0.144674
 H         1.015854        -2.880314         2.492656
 H         2.577906        -3.437879         1.979024
 H         2.247539        -1.951633         4.092425
 H         3.726943        -1.651426         3.302400
 H         2.584900         1.101235         1.086885
