19
Iteration:  1506charge 0 multiplicity 1
 C        -0.176831        -0.070697         0.273076
 C         1.274860        -0.598439         0.405997
 O         2.151135        -0.217000        -0.668348
 C         3.115529        -0.871205         0.512157
 C         2.020719        -1.940789         0.714701
 C         1.841480        -2.569789         2.059163
 C         2.575568        -1.698675         3.053641
 O         2.249193        -0.331839         2.745261
 C         2.310892         0.053396         1.384260
 H        -0.512253        -0.042270         1.295409
 H         0.196780         0.845970        -0.184093
 H        -0.955515        -0.701530        -0.268415
 H         4.217721        -0.882586         0.332107
 H         1.930413        -2.704310        -0.088839
 H         0.876587        -2.450746         2.500792
 H         2.115607        -3.620346         2.233527
 H         2.159650        -1.736372         4.014849
 H         3.567541        -1.919212         3.113147
 H         2.381879         1.132273         1.164341
