19
Iteration:   820
 C        -0.163556        -0.056473         0.280187
 C         1.243242        -0.519287         0.435376
 O         2.219719        -0.257279        -0.632444
 C         3.015024        -0.900746         0.411071
 C         1.998781        -1.928321         0.607502
 C         1.866434        -2.598815         2.096990
 C         2.560119        -1.666410         3.102094
 O         2.285929        -0.303358         2.747695
 C         2.291953         0.011182         1.419308
 H        -0.604649        -0.350733         1.243276
 H        -0.267371         1.007020         0.334173
 H        -0.578294        -0.538730        -0.555557
 H         4.110087        -1.145245         0.217128
 H         2.027297        -2.725764        -0.116766
 H         0.873014        -2.392520         2.313959
 H         2.100729        -3.721742         2.137958
 H         2.160732        -1.760330         4.083839
 H         3.584227        -1.737697         3.189199
 H         2.690876         1.029086         1.258460
