19
Iteration:  3008charge 0 multiplicity 1
 C        -0.220182        -0.252524         0.148270
 C         1.248782        -0.569571         0.469314
 O         2.220905        -0.122759        -0.651831
 C         3.077940        -0.756792         0.446543
 C         2.002322        -1.945101         0.642646
 C         1.706232        -2.569644         2.039158
 C         2.607184        -1.725938         3.025847
 O         2.365719        -0.313824         2.864415
 C         2.360031         0.060496         1.549996
 H        -0.953478        -0.465124         1.007093
 H        -0.456750         0.800195        -0.078693
 H        -0.449016        -0.773847        -0.860364
 H         4.151803        -0.825155         0.255003
 H         1.897605        -2.674326        -0.167658
 H         0.571801        -2.485407         2.227327
 H         2.003272        -3.671503         2.394389
 H         2.367022        -2.031344         4.050499
 H         3.632779        -2.151228         2.771414
 H         2.400019         1.165959         1.328096
