19
Iteration:  4198
 C        -0.216347        -0.145981         0.223580
 C         1.210418        -0.495452         0.377216
 O         2.258158        -0.365449        -0.703757
 C         3.045886        -0.863624         0.421675
 C         1.921058        -1.932364         0.702016
 C         1.873901        -2.645178         2.064320
 C         2.613985        -1.637941         3.122568
 O         2.330785        -0.232436         2.829167
 C         2.280326         0.121724         1.482099
 H        -0.568361         0.066875         1.197277
 H        -0.159387         0.784653        -0.346974
 H        -0.915803        -0.752899        -0.343699
 H         4.122578        -0.919320         0.128180
 H         1.670799        -2.619680        -0.119548
 H         0.878483        -3.037872         2.318386
 H         2.463445        -3.507545         2.165325
 H         2.036800        -1.782131         4.055939
 H         3.721831        -1.829947         3.066906
 H         2.510374         1.136850         1.334672
