19
Iteration:  1603
 C        -0.183273        -0.190876         0.248811
 C         1.265590        -0.558638         0.464012
 O         2.167498        -0.231676        -0.643786
 C         3.062972        -0.883895         0.459926
 C         1.996018        -1.966407         0.567637
 C         1.763457        -2.452369         2.008699
 C         2.505530        -1.669978         3.071768
 O         2.416529        -0.278340         2.850624
 C         2.329557         0.021426         1.465440
 H        -0.661086        -0.692666         1.027690
 H        -0.213564         0.873412         0.236272
 H        -0.495955        -0.662250        -0.672091
 H         4.135755        -0.979922         0.265539
 H         2.093291        -2.598987        -0.277413
 H         0.649248        -2.438132         2.280954
 H         2.072885        -3.573219         2.153261
 H         2.048455        -1.901343         4.031135
 H         3.687867        -1.752351         3.190855
 H         2.395307         1.084145         1.204895
