19
Iteration:   412charge 0 multiplicity 1
 C        -0.063178        -0.185518         0.230081
 C         1.283776        -0.586923         0.417678
 O         2.156754        -0.198617        -0.692635
 C         3.072138        -0.864943         0.416376
 C         1.890899        -1.944169         0.676403
 C         1.711452        -2.497996         2.129175
 C         2.580665        -1.714929         3.051712
 O         2.375130        -0.333463         2.855285
 C         2.331095         0.105638         1.392352
 H        -0.468902         0.044207         1.209082
 H        -0.061854         0.766660        -0.368617
 H        -0.853239        -0.818865        -0.251065
 H         4.132426        -0.912409         0.326017
 H         1.930134        -2.766211        -0.079303
 H         0.632063        -2.497247         2.447522
 H         1.990540        -3.539386         2.079969
 H         2.337429        -1.884729         4.145772
 H         3.643133        -1.994247         2.928735
 H         2.459849         1.169390         1.376917
