19
Iteration:  2231
 C        -0.188608         0.000366         0.316992
 C         1.206829        -0.682226         0.395347
 O         2.263544        -0.184591        -0.662091
 C         3.102860        -0.837965         0.427216
 C         2.009207        -1.983542         0.683323
 C         1.847704        -2.638784         2.027792
 C         2.555876        -1.716337         3.085963
 O         2.243785        -0.254247         2.796251
 C         2.296755         0.011524         1.465296
 H        -0.883185        -0.252465         1.188085
 H         0.150202         1.069969         0.217520
 H        -0.666511        -0.145077        -0.705051
 H         4.130557        -0.960914         0.216354
 H         1.970536        -2.720261        -0.168369
 H         0.713918        -2.736495         2.181657
 H         2.393557        -3.467042         2.139729
 H         2.095996        -2.002501         4.015685
 H         3.580348        -1.859299         2.915512
 H         2.362592         1.045401         1.215697
