19
Iteration:   110
 C        -0.163307        -0.160858         0.270429
 C         1.274267        -0.484819         0.450133
 O         2.254262        -0.224822        -0.645364
 C         3.053041        -0.962724         0.397374
 C         1.863388        -1.928886         0.667836
 C         1.765014        -2.533329         2.085155
 C         2.475958        -1.660898         3.117890
 O         2.349307        -0.268216         2.746096
 C         2.467000         0.021663         1.381625
 H        -0.569494        -0.998803         0.842312
 H        -0.539554         0.683531         0.856689
 H        -0.583171        -0.011463        -0.694237
 H         4.079638        -1.182972         0.157394
 H         1.703929        -2.567514        -0.176932
 H         0.784015        -2.498923         2.407876
 H         2.149793        -3.592136         2.237165
 H         2.128519        -1.730228         4.165457
 H         3.596280        -1.967828         3.053993
 H         2.705554         1.064143         1.272930
