19
Iteration:  1825
 C        -0.167702        -0.166515         0.309748
 C         1.313751        -0.624173         0.533889
 O         2.173946        -0.242691        -0.643116
 C         3.138612        -0.787432         0.389974
 C         2.067740        -2.025496         0.584509
 C         1.713693        -2.536693         2.049936
 C         2.475998        -1.703029         3.079568
 O         2.350789        -0.263139         2.819204
 C         2.320716         0.082613         1.391463
 H        -0.787285        -0.398985         1.147048
 H        -0.036870         0.885967         0.237741
 H        -0.542176        -0.512067        -0.640186
 H         4.220808        -0.701278         0.121654
 H         1.752378        -2.453133        -0.371090
 H         0.580833        -2.484376         2.025789
 H         2.130589        -3.638245         2.083756
 H         2.047050        -1.833639         4.026323
 H         3.554637        -1.991883         3.206138
 H         2.268222         1.134708         1.462947
