19
Iteration:   661charge 0 multiplicity 1
 C        -0.136872        -0.140583         0.418462
 C         1.324812        -0.422852         0.515753
 O         2.283375        -0.279670        -0.679240
 C         3.088501        -0.966058         0.431162
 C         1.834611        -1.938691         0.613343
 C         1.879511        -2.585092         2.007135
 C         2.515602        -1.623381         3.017886
 O         2.180650        -0.262486         2.775529
 C         2.404921         0.013642         1.407485
 H        -0.684018         0.086929         1.344119
 H        -0.208286         0.813122        -0.145303
 H        -0.662695        -0.994087        -0.103084
 H         4.074060        -1.171784         0.116161
 H         1.353209        -2.480300        -0.216446
 H         0.898740        -2.848200         2.295651
 H         2.519525        -3.442767         2.003178
 H         2.038348        -1.877984         4.003292
 H         3.602534        -1.718527         3.138810
 H         2.645189         1.052955         1.270827
