19
Iteration:   184charge 0 multiplicity 1
 C        -0.030571         0.002364         0.313024
 C         1.270344        -0.639565         0.440113
 O         2.216944        -0.250561        -0.741901
 C         3.009945        -0.751839         0.284135
 C         2.009974        -2.016900         0.699447
 C         1.775208        -2.575988         2.127996
 C         2.546696        -1.703933         3.074552
 O         2.322260        -0.336922         2.860352
 C         2.254151         0.024630         1.402964
 H        -0.299970         0.318832         1.279848
 H        -0.097799         0.870734        -0.349794
 H        -0.865043        -0.531482        -0.259083
 H         4.089035        -0.811680         0.285978
 H         1.903438        -2.884246         0.064765
 H         0.638557        -2.397172         2.304945
 H         2.058738        -3.691925         2.257090
 H         2.146999        -1.884221         4.117179
 H         3.539578        -1.989265         3.102737
 H         2.167480         1.118031         1.373900
