19
Iteration:  2415
 C        -0.143771         0.001529         0.269647
 C         1.263509        -0.524962         0.397366
 O         2.223288        -0.259886        -0.681145
 C         3.045287        -0.804019         0.450731
 C         2.019826        -1.990616         0.667998
 C         1.885214        -2.669053         2.068936
 C         2.530043        -1.765506         3.072476
 O         2.255514        -0.313936         2.806438
 C         2.289246         0.085517         1.407662
 H        -0.762975        -0.393614         1.076261
 H        -0.197183         1.069387         0.366256
 H        -0.807115        -0.325519        -0.491053
 H         4.114995        -0.767774         0.360454
 H         1.797008        -2.663147        -0.138203
 H         0.874021        -2.622511         2.282999
 H         2.336875        -3.688734         2.098486
 H         2.093792        -2.042414         4.021102
 H         3.673687        -1.703289         3.099433
 H         2.477914         1.108415         1.481579
