19
Iteration:  3427
 C        -0.182011        -0.047169         0.273287
 C         1.207094        -0.545933         0.435633
 O         2.331711        -0.212825        -0.579980
 C         3.045493        -0.913256         0.494226
 C         1.936173        -2.010198         0.634971
 C         1.949358        -2.610585         2.030293
 C         2.610733        -1.626799         3.061082
 O         2.204760        -0.286360         2.761464
 C         2.181786         0.026097         1.426911
 H        -0.799527        -0.535520         1.017308
 H        -0.225636         1.021467         0.516424
 H        -0.499269        -0.166985        -0.750906
 H         4.098042        -1.022444         0.237826
 H         1.960148        -2.758295        -0.188349
 H         0.954841        -2.909093         2.143232
 H         2.474753        -3.661834         2.058982
 H         2.346581        -1.832334         4.048858
 H         3.691484        -1.695974         2.737851
 H         2.361095         1.070783         1.186911
