19
Iteration:  1115charge 0 multiplicity 1
 C        -0.136350        -0.151438         0.251524
 C         1.253871        -0.621629         0.346181
 O         2.085502        -0.244387        -0.646366
 C         3.134725        -0.802097         0.496554
 C         2.029181        -1.969753         0.631115
 C         1.703860        -2.476446         2.046878
 C         2.525663        -1.714111         3.047335
 O         2.360827        -0.287811         2.869582
 C         2.371798         0.078431         1.429516
 H        -0.650720        -0.320148         1.223143
 H        -0.123802         0.817520        -0.190981
 H        -0.752572        -0.816462        -0.363911
 H         4.249565        -0.840564         0.273186
 H         2.185763        -2.734085        -0.150124
 H         0.643688        -2.487272         2.370449
 H         2.040118        -3.561278         2.151254
 H         2.164110        -1.923461         4.013789
 H         3.720640        -2.039169         2.929003
 H         2.718390         1.095049         1.368495
