19
Iteration:  1655
 C        -0.207522        -0.293080         0.334637
 C         1.336034        -0.416195         0.391136
 O         2.260049        -0.248889        -0.675831
 C         3.042992        -0.928419         0.442880
 C         1.918399        -1.861156         0.665073
 C         1.823300        -2.492899         1.967937
 C         2.543653        -1.708399         3.107105
 O         2.239959        -0.326792         2.816967
 C         2.429810         0.106592         1.447052
 H        -0.459487        -0.495787         1.392441
 H        -0.435384         0.747077        -0.021490
 H        -0.640312        -0.883872        -0.457747
 H         4.007527        -0.967202         0.097074
 H         1.627812        -2.496808        -0.150038
 H         0.745342        -2.535235         2.186120
 H         2.080620        -3.558155         2.019162
 H         2.066893        -1.985986         4.116901
 H         3.550987        -1.814313         3.139093
 H         2.752421         1.114108         1.334011
