19
Iteration:  1712
 C        -0.149695         0.058053         0.281304
 C         1.247025        -0.601966         0.395468
 O         2.170529        -0.345266        -0.722903
 C         3.076455        -0.840156         0.523975
 C         2.031325        -1.927911         0.622844
 C         1.899528        -2.603103         1.988754
 C         2.593333        -1.638635         3.108918
 O         2.234653        -0.342114         2.814633
 C         2.271356        -0.026289         1.476487
 H        -0.833248         0.068016         1.146111
 H         0.037711         1.139420         0.110671
 H        -0.844449        -0.455559        -0.435635
 H         4.150497        -0.703661         0.236709
 H         1.914592        -2.570109        -0.217429
 H         0.851448        -2.552196         2.345239
 H         2.472964        -3.570466         2.205956
 H         2.203097        -1.936220         4.076851
 H         3.621264        -1.774329         3.183751
 H         2.242755         1.090527         1.287926
