19
Iteration:   424charge 0 multiplicity 1
 C        -0.227346        -0.182288         0.240793
 C         1.278562        -0.503631         0.448164
 O         2.227866        -0.242227        -0.645518
 C         3.075941        -0.888120         0.430889
 C         1.932102        -1.915021         0.679166
 C         1.722694        -2.537103         2.054969
 C         2.568664        -1.661007         3.027221
 O         2.349516        -0.276710         2.789093
 C         2.429626        -0.002133         1.501914
 H        -0.735487         0.105872         1.188237
 H        -0.306858         0.684332        -0.462070
 H        -0.640586        -1.129471        -0.160426
 H         4.071379        -1.085192         0.136080
 H         1.667231        -2.550272        -0.183815
 H         0.634827        -2.461875         2.305094
 H         2.067456        -3.511384         2.145206
 H         2.361870        -1.851779         4.100771
 H         3.588369        -1.865127         2.830288
 H         2.628156         1.028942         1.392186
