19
Iteration:  4110
 C        -0.268619        -0.201503         0.279006
 C         1.281624        -0.499085         0.394632
 O         2.253603        -0.343477        -0.727759
 C         3.061402        -0.830974         0.457173
 C         1.979996        -1.936152         0.717859
 C         1.776401        -2.544166         2.080305
 C         2.596856        -1.691774         3.088024
 O         2.322008        -0.204383         2.818017
 C         2.379940         0.092688         1.385431
 H        -0.832285        -0.990018         0.823082
 H        -0.648085         0.706618         0.789868
 H        -0.704728        -0.402365        -0.719840
 H         4.133606        -1.071490         0.314315
 H         1.944718        -2.563949        -0.179657
 H         0.653908        -2.720431         2.232492
 H         2.085602        -3.584710         2.137423
 H         2.052946        -1.833391         4.082750
 H         3.754978        -1.780544         3.056770
 H         2.597819         1.129972         1.370545
