19
Iteration:   993charge 0 multiplicity 1
 C        -0.129237        -0.077134         0.260526
 C         1.253765        -0.654656         0.484347
 O         2.244467        -0.310347        -0.657809
 C         3.050394        -0.794262         0.400920
 C         1.923746        -1.977631         0.625214
 C         1.761344        -2.591720         2.029644
 C         2.594901        -1.631100         3.072251
 O         2.350349        -0.228758         2.849134
 C         2.257144         0.020611         1.454866
 H        -0.887117        -0.627102         0.841869
 H        -0.059477         0.985745         0.508415
 H        -0.501994        -0.081152        -0.767695
 H         4.145346        -0.856175         0.199039
 H         1.869756        -2.650537        -0.264982
 H         0.703832        -2.687324         2.298673
 H         2.084218        -3.639774         2.017955
 H         2.435827        -1.823890         4.101884
 H         3.625954        -1.834053         2.923638
 H         2.455792         1.096111         1.334329
