19
Iteration:  2443charge 0 multiplicity 1
 C        -0.109117        -0.098742         0.255911
 C         1.289220        -0.558588         0.472526
 O         2.192490        -0.265247        -0.672198
 C         3.095659        -0.757609         0.374159
 C         2.014181        -1.894632         0.666210
 C         1.802453        -2.522001         2.060441
 C         2.537298        -1.752151         3.044890
 O         2.279513        -0.406364         2.876897
 C         2.283424         0.045993         1.421659
 H        -0.823103        -0.115168         1.141920
 H        -0.101302         0.951148        -0.155244
 H        -0.634483        -0.767738        -0.494781
 H         4.233143        -0.802416         0.208110
 H         1.729349        -2.589055        -0.198028
 H         0.619460        -2.444191         2.209854
 H         2.212837        -3.521457         2.030699
 H         2.268994        -2.101444         4.065714
 H         3.604437        -1.801861         2.930571
 H         2.316410         1.173526         1.623022
