19
Iteration:  3822
 C        -0.161212        -0.084995         0.297522
 C         1.249445        -0.579908         0.446901
 O         2.267856        -0.267850        -0.665362
 C         3.022688        -0.910163         0.440479
 C         1.927609        -1.984066         0.589018
 C         1.977319        -2.526950         2.042399
 C         2.597480        -1.588185         3.086139
 O         2.131555        -0.276230         2.845295
 C         2.304606         0.000275         1.400142
 H        -0.343771        -0.062614         1.404109
 H         0.099508         0.972897        -0.048726
 H        -0.866345        -0.583427        -0.410473
 H         4.067230        -1.173866         0.370001
 H         1.693962        -2.797958        -0.126520
 H         0.986342        -2.901427         2.317200
 H         2.490618        -3.495022         1.863795
 H         2.130098        -2.010300         3.977084
 H         3.785679        -1.491466         3.085640
 H         2.477307         1.123878         1.241769
