19
Iteration:   476charge 0 multiplicity 1
 C        -0.170395        -0.068787         0.359207
 C         1.284539        -0.517476         0.434327
 O         2.217083        -0.247670        -0.672237
 C         3.108211        -0.932356         0.356094
 C         1.986701        -1.975604         0.656061
 C         1.798642        -2.580539         2.058774
 C         2.478371        -1.658376         3.111666
 O         2.257538        -0.288611         2.763360
 C         2.389841         0.061359         1.384762
 H        -0.452489         0.125742         1.358973
 H        -0.266553         0.858843        -0.188400
 H        -0.777983        -0.951348         0.132448
 H         4.183058        -0.943449         0.238501
 H         1.849145        -2.730573        -0.166607
 H         0.695419        -2.647730         2.246415
 H         2.390081        -3.584619         2.119107
 H         2.011558        -1.888093         4.126268
 H         3.643069        -1.949304         3.196782
 H         2.552256         1.141059         1.325489
