19
Iteration:  3984charge 0 multiplicity 1
 C        -0.136218         0.004314         0.315368
 C         1.212890        -0.598949         0.470146
 O         2.284097        -0.256014        -0.666543
 C         3.027581        -0.965968         0.407066
 C         1.960025        -2.012632         0.545603
 C         1.983975        -2.575597         2.118266
 C         2.692206        -1.548350         3.071969
 O         2.067276        -0.289506         2.809473
 C         2.269888         0.001782         1.404495
 H        -0.554628         0.104374         1.273313
 H        -0.211614         0.850696        -0.344232
 H        -0.825835        -0.575006        -0.259516
 H         4.109304        -1.197309         0.403026
 H         1.754332        -2.889264        -0.107078
 H         0.935029        -2.683244         2.489642
 H         2.312834        -3.670223         2.072232
 H         2.376523        -1.716139         4.074511
 H         3.925637        -1.445162         3.101064
 H         2.360370         1.079941         1.197048
