19
Iteration:  3288
 C        -0.138085        -0.136978         0.419139
 C         1.285280        -0.491439         0.468965
 O         2.250631        -0.191595        -0.668159
 C         3.068022        -0.888327         0.466339
 C         2.015716        -1.967000         0.574158
 C         1.954362        -2.654931         1.952679
 C         2.477410        -1.693297         3.065955
 O         2.104007        -0.255667         2.755454
 C         2.355843         0.028777         1.433462
 H        -0.390861        -0.187753         1.472303
 H        -0.333865         0.944167         0.241300
 H        -0.876590        -0.666859        -0.247808
 H         4.072620        -0.996550         0.135515
 H         1.939903        -2.630691        -0.303813
 H         0.912446        -3.049109         2.285799
 H         2.546254        -3.468079         2.071881
 H         1.908802        -1.761116         4.038312
 H         3.624548        -1.729378         3.169650
 H         2.629158         1.128839         1.350614
