19
Iteration:  4633charge 0 multiplicity 1
 C        -0.130997        -0.334001         0.379719
 C         1.326359        -0.541877         0.432533
 O         2.234167        -0.185052        -0.624390
 C         3.062804        -0.905502         0.407200
 C         1.952276        -1.922959         0.594582
 C         1.747434        -2.596832         2.004821
 C         2.461911        -1.576430         3.031739
 O         2.355091        -0.163549         2.850339
 C         2.376509        -0.007429         1.410775
 H        -0.708076        -0.685945         1.231628
 H        -0.469489         0.747066         0.305912
 H        -0.478639        -0.750677        -0.579769
 H         3.972002        -1.195301         0.032843
 H         1.779715        -2.491219        -0.328034
 H         0.615240        -2.605667         2.281236
 H         2.185561        -3.557567         2.043566
 H         2.100344        -1.857161         4.042191
 H         3.477112        -1.680200         3.014530
 H         2.482813         1.069214         1.390662
