19
Iteration:   845
 C        -0.170466        -0.102715         0.361190
 C         1.326975        -0.526508         0.499377
 O         2.288767        -0.247813        -0.693212
 C         3.113071        -0.959019         0.400443
 C         1.780603        -1.892566         0.628835
 C         1.880657        -2.616397         2.035204
 C         2.476208        -1.636040         3.039183
 O         2.201648        -0.241857         2.824276
 C         2.399136         0.047691         1.428859
 H        -0.628362        -0.172855         1.305602
 H        -0.449978         0.849207         0.010272
 H        -0.390594        -0.940253        -0.269880
 H         4.045615        -1.262030        -0.086764
 H         1.682476        -2.683616        -0.078871
 H         0.971619        -3.200836         2.402647
 H         2.714126        -3.247628         1.821516
 H         2.260685        -1.923465         4.072363
 H         3.522399        -1.636121         2.946103
 H         2.679742         1.072428         1.248302
