19
Iteration:  1026
 C        -0.212714        -0.069516         0.340790
 C         1.234601        -0.568759         0.449587
 O         2.267419        -0.260093        -0.706768
 C         3.086747        -0.889298         0.359642
 C         1.972053        -1.937170         0.687667
 C         1.858229        -2.615642         2.051594
 C         2.509531        -1.637838         3.101356
 O         2.240871        -0.282230         2.792872
 C         2.368223         0.020861         1.432691
 H        -0.799891        -0.261104         1.275004
 H        -0.169037         1.016029         0.369610
 H        -0.775114        -0.418378        -0.529710
 H         4.151161        -1.079145         0.096208
 H         1.931090        -2.658518        -0.164750
 H         0.767447        -2.733533         2.239621
 H         2.371087        -3.595127         1.992000
 H         2.085000        -1.796125         4.060344
 H         3.654903        -1.673346         3.103914
 H         2.782394         1.030554         1.282422
