19
Iteration:   214
 C        -0.178648        -0.056596         0.240146
 C         1.242822        -0.502995         0.482003
 O         2.209832        -0.272192        -0.630021
 C         3.039070        -0.976117         0.422472
 C         1.957157        -1.888579         0.705660
 C         1.829098        -2.612016         1.993158
 C         2.535969        -1.666572         3.028681
 O         2.310675        -0.283156         2.833521
 C         2.395544         0.047597         1.419704
 H        -0.564410         0.444152         1.142583
 H        -0.211915         0.684062        -0.586811
 H        -0.883768        -0.976178         0.095369
 H         4.101417        -1.284966         0.562406
 H         1.816079        -2.562330        -0.219639
 H         0.737860        -2.741537         2.215877
 H         2.308580        -3.518424         1.922932
 H         2.252962        -1.727896         4.109203
 H         3.662771        -1.932172         2.983305
 H         2.533789         1.151868         1.202960
