19
Iteration:  4996
 C        -0.169590        -0.281890         0.271195
 C         1.287346        -0.474678         0.512233
 O         2.234799        -0.149967        -0.672494
 C         3.073391        -0.860014         0.437102
 C         1.854868        -1.845162         0.625973
 C         1.863845        -2.546704         1.957942
 C         2.488741        -1.664748         3.100526
 O         2.270427        -0.350867         2.790779
 C         2.429523         0.018533         1.509547
 H        -0.580401         0.665996         0.707468
 H        -0.148860        -0.209530        -0.787945
 H        -0.730345        -1.169430         0.582692
 H         4.153488        -0.934703         0.210080
 H         1.865569        -2.603486        -0.219135
 H         0.791377        -2.816246         2.336407
 H         2.313717        -3.538870         1.787163
 H         2.151201        -2.086673         4.122001
 H         3.554835        -1.742576         3.096774
 H         2.540584         1.099441         1.483298
