19
Iteration:   376
 C        -0.261687        -0.039429         0.227520
 C         1.247451        -0.563093         0.470203
 O         2.206751        -0.331927        -0.654303
 C         3.060900        -0.900382         0.508527
 C         1.969446        -1.959795         0.649969
 C         1.811161        -2.493600         2.074397
 C         2.545082        -1.630701         3.005468
 O         2.344587        -0.322725         2.815968
 C         2.384765         0.054385         1.418232
 H        -0.832142        -0.340838         1.094707
 H        -0.156652         1.032495         0.361809
 H        -0.683762        -0.399862        -0.755245
 H         4.150104        -1.079403         0.183654
 H         1.952192        -2.724535        -0.197039
 H         0.724036        -2.559225         2.318075
 H         2.340184        -3.575405         2.015086
 H         2.182131        -1.828132         4.033147
 H         3.666944        -2.036431         2.937510
 H         2.682312         1.162551         1.355900
