19
Iteration:  4133charge 0 multiplicity 1
 C        -0.143101        -0.146696         0.295695
 C         1.298299        -0.543579         0.454482
 O         2.277403        -0.292327        -0.672155
 C         3.026153        -0.981842         0.402446
 C         1.883279        -1.966395         0.694923
 C         1.916715        -2.510636         2.093618
 C         2.623538        -1.571264         3.014187
 O         2.196342        -0.229585         2.791106
 C         2.243479         0.007627         1.434659
 H        -0.982445        -0.634587         0.768107
 H        -0.213716         0.929575         0.624124
 H        -0.390753        -0.166652        -0.805748
 H         4.139005        -1.113577         0.434032
 H         1.574752        -2.637003        -0.124702
 H         0.956330        -2.960011         2.494946
 H         2.486606        -3.424138         1.940474
 H         2.338098        -1.767524         4.096425
 H         3.744259        -1.545160         2.792351
 H         2.517599         1.010141         1.380276
