19
Iteration:  2989charge 0 multiplicity 1
 C        -0.098743        -0.309295         0.160094
 C         1.269395        -0.478593         0.449757
 O         2.211376        -0.109176        -0.582727
 C         3.059675        -0.826808         0.379748
 C         1.892807        -1.857735         0.629592
 C         1.803614        -2.518792         2.085231
 C         2.562069        -1.751682         3.109541
 O         2.342098        -0.389276         2.804434
 C         2.303291         0.070928         1.484582
 H        -0.857210        -0.757775         0.923087
 H        -0.446087         0.744610         0.128766
 H        -0.375031        -0.846498        -0.776655
 H         4.150868        -0.999750         0.169573
 H         1.761711        -2.756144        -0.107046
 H         0.762854        -2.350053         2.390791
 H         2.024380        -3.450162         1.820514
 H         2.206924        -1.910214         4.108393
 H         3.803515        -1.952290         3.020565
 H         2.542561         1.110705         1.381116
