19
Iteration:  3897
 C        -0.277313        -0.370484         0.250672
 C         1.227897        -0.610859         0.377772
 O         2.272170        -0.137057        -0.645957
 C         3.044122        -0.857164         0.342854
 C         1.989980        -1.910087         0.578685
 C         1.730808        -2.459622         2.158251
 C         2.482933        -1.662714         3.152507
 O         2.508312        -0.245427         2.811591
 C         2.378948         0.052910         1.456226
 H        -0.767609        -1.058013         0.960058
 H        -0.499967         0.673522         0.544003
 H        -0.461286        -0.728056        -0.762415
 H         4.144385        -0.906751         0.249185
 H         1.781774        -2.678313        -0.183781
 H         0.597197        -2.375491         2.055846
 H         1.758828        -3.636829         2.283977
 H         2.014747        -1.641315         4.087308
 H         3.419174        -2.075510         3.151339
 H         2.542652         1.158643         1.344121
