19
Iteration:   782
 C        -0.145545        -0.153745         0.217266
 C         1.247207        -0.545485         0.472176
 O         2.237005        -0.253447        -0.651452
 C         3.026234        -0.851665         0.417388
 C         1.946182        -1.980567         0.689218
 C         1.679820        -2.585354         2.077860
 C         2.565740        -1.682821         3.015681
 O         2.410021        -0.235865         2.846700
 C         2.357667         0.086696         1.488110
 H        -0.788814        -0.903138         0.732468
 H        -0.494396         0.920819         0.320748
 H        -0.460958        -0.484652        -0.883433
 H         3.970286        -1.004973        -0.022875
 H         2.020271        -2.507967        -0.288000
 H         0.578504        -2.530182         2.334532
 H         1.936415        -3.609441         2.227177
 H         2.535713        -1.962358         4.118920
 H         3.638257        -1.903889         2.637406
 H         2.522236         1.161258         1.358929
