19
Iteration:   848charge 0 multiplicity 1
 C        -0.134909        -0.115348         0.371177
 C         1.315921        -0.501932         0.507361
 O         2.280007        -0.274815        -0.675730
 C         3.103636        -0.962074         0.390003
 C         1.779737        -1.860632         0.620788
 C         1.904033        -2.603349         2.008133
 C         2.461248        -1.631003         3.030111
 O         2.194876        -0.235796         2.818290
 C         2.385546         0.033851         1.441331
 H        -0.615293        -0.213957         1.381626
 H        -0.418568         0.893257        -0.083978
 H        -0.419207        -1.029197        -0.246566
 H         4.041558        -1.367470         0.043813
 H         1.724186        -2.673169        -0.149828
 H         0.976266        -3.178540         2.434237
 H         2.664725        -3.297977         1.754393
 H         2.230065        -1.865613         4.127283
 H         3.661947        -1.691071         2.944790
 H         2.701016         1.073931         1.271265
