19
Iteration:   471charge 0 multiplicity 1
 C        -0.142243        -0.107465         0.362969
 C         1.299988        -0.475426         0.387899
 O         2.239300        -0.260633        -0.627150
 C         3.082130        -0.927811         0.360892
 C         1.918923        -1.953128         0.625283
 C         1.796731        -2.563810         2.054360
 C         2.470736        -1.672170         3.132363
 O         2.280950        -0.290331         2.769479
 C         2.359658         0.042826         1.383277
 H        -0.434861         0.158165         1.434984
 H        -0.364608         0.794268        -0.249077
 H        -0.632319        -1.068063         0.129865
 H         4.205274        -0.912174         0.187797
 H         1.872595        -2.688531        -0.174237
 H         0.765453        -2.765994         2.340080
 H         2.444054        -3.431101         2.106285
 H         2.165775        -1.852097         4.142079
 H         3.482538        -1.866776         3.077683
 H         2.671668         1.119611         1.222380
