19
Iteration:  2237charge 0 multiplicity 1
 C        -0.202943        -0.028546         0.284355
 C         1.258242        -0.603413         0.462073
 O         2.264326        -0.229054        -0.614579
 C         3.055372        -0.863221         0.417662
 C         2.031880        -1.976195         0.656443
 C         1.852157        -2.635192         2.018962
 C         2.550379        -1.688113         3.054296
 O         2.243058        -0.247039         2.804532
 C         2.274773         0.013046         1.447613
 H        -0.917264        -0.047610         1.099815
 H        -0.021353         1.054508         0.196973
 H        -0.811312        -0.134939        -0.601514
 H         4.185112        -1.115351         0.335810
 H         2.033068        -2.646277        -0.184349
 H         0.816858        -2.927611         2.041722
 H         2.340054        -3.775862         1.903162
 H         2.152652        -1.799652         4.091702
 H         3.686415        -1.929053         2.927329
 H         2.511147         1.106039         1.241765
