19
Iteration:  1472charge 0 multiplicity 1
 C        -0.189505        -0.339203         0.314685
 C         1.306698        -0.476802         0.463849
 O         2.301731        -0.205311        -0.719007
 C         3.102018        -0.993893         0.345299
 C         1.821698        -1.874677         0.619218
 C         1.759766        -2.563872         2.022572
 C         2.467526        -1.660176         3.015570
 O         2.323167        -0.189408         2.944883
 C         2.437558         0.125750         1.509025
 H        -0.646662        -0.189252         1.276825
 H        -0.593880         0.565235        -0.149208
 H        -0.482128        -1.156116        -0.355474
 H         4.125971        -1.248727         0.171609
 H         1.477604        -2.503604        -0.184020
 H         0.756126        -2.904554         2.263216
 H         2.442785        -3.459799         1.862729
 H         2.145910        -1.981088         4.010960
 H         3.478349        -1.736045         2.960997
 H         2.765601         1.121221         1.234511
