19
Iteration:  1763charge 0 multiplicity 1
 C        -0.164675        -0.239650         0.242774
 C         1.250799        -0.461695         0.534748
 O         2.314004        -0.186378        -0.565655
 C         2.975466        -0.983972         0.469286
 C         1.860886        -1.909430         0.619523
 C         1.819585        -2.504944         1.974709
 C         2.557456        -1.648669         2.957393
 O         2.297354        -0.267946         2.808397
 C         2.404683         0.050528         1.449053
 H        -0.798611        -0.607534         1.120081
 H        -0.550030         0.801608         0.064153
 H        -0.465363        -0.971181        -0.509950
 H         3.998576        -1.140935         0.353977
 H         1.620120        -2.665466        -0.192658
 H         0.832824        -2.774598         2.295285
 H         2.411021        -3.360381         2.115790
 H         2.223751        -1.962838         4.035954
 H         3.690513        -1.899562         2.913340
 H         2.740402         1.020954         1.137644
