19
Iteration:   579charge 0 multiplicity 1
 C        -0.131205        -0.150064         0.189413
 C         1.250284        -0.558407         0.523690
 O         2.192965        -0.258364        -0.654465
 C         3.065191        -0.823182         0.485480
 C         1.918273        -1.983752         0.666745
 C         1.653468        -2.526401         2.053185
 C         2.627843        -1.662159         3.049440
 O         2.396855        -0.282981         2.821518
 C         2.358640         0.048885         1.414187
 H        -0.616658        -0.778036         0.994783
 H        -0.506244         0.889390         0.266614
 H        -0.493939        -0.404742        -0.802980
 H         4.110878        -0.921957         0.111736
 H         1.844999        -2.694628        -0.159352
 H         0.552106        -2.545250         2.328327
 H         1.855278        -3.554137         2.119368
 H         2.562223        -1.893950         4.088168
 H         3.638426        -1.905643         2.724650
 H         2.641721         1.120870         1.259215
