19
Iteration:  2314
 C        -0.109053        -0.190812         0.253001
 C         1.281575        -0.662605         0.410465
 O         2.218520        -0.186976        -0.601831
 C         3.049640        -0.842841         0.505376
 C         1.970390        -1.911888         0.595806
 C         1.711700        -2.513142         1.971082
 C         2.522828        -1.699544         3.038941
 O         2.376994        -0.270182         2.863645
 C         2.293029         0.044185         1.458491
 H        -0.593879        -0.078929         1.221344
 H        -0.157673         0.838523        -0.067734
 H        -0.844671        -0.693706        -0.318511
 H         4.185279        -0.986460         0.296674
 H         2.001539        -2.500279        -0.299142
 H         0.645797        -2.635437         1.914028
 H         2.050217        -3.589724         2.171770
 H         2.456308        -2.010042         4.097628
 H         3.591915        -2.054194         2.828433
 H         2.430292         1.134462         1.357087
