19
Iteration:  1853charge 0 multiplicity 1
 C        -0.214877        -0.137187         0.283232
 C         1.293036        -0.516464         0.384513
 O         2.258094        -0.215988        -0.637586
 C         3.045817        -0.978353         0.450799
 C         1.908650        -1.906178         0.644767
 C         1.903675        -2.578587         2.009138
 C         2.524660        -1.672829         3.098956
 O         2.270082        -0.257408         2.809618
 C         2.353937         0.061900         1.435801
 H        -0.587913        -0.433155         1.287998
 H        -0.177860         0.977716         0.237285
 H        -0.775065        -0.718258        -0.525586
 H         4.068530        -1.272495         0.143168
 H         1.691701        -2.548963        -0.229265
 H         0.884854        -2.861471         2.157543
 H         2.533998        -3.376416         1.785767
 H         1.995487        -1.893369         4.086583
 H         3.567634        -1.953254         3.294435
 H         2.503137         1.178346         1.506493
