19
Iteration:  1329charge 0 multiplicity 1
 C        -0.248210        -0.081845         0.252021
 C         1.232980        -0.589580         0.418448
 O         2.247877        -0.269111        -0.642729
 C         3.121586        -0.830994         0.421389
 C         1.979941        -1.973075         0.709532
 C         1.788534        -2.582427         2.094278
 C         2.546470        -1.700379         3.018523
 O         2.318197        -0.283522         2.800822
 C         2.338073         0.065031         1.428810
 H        -0.803521         0.082337         1.203305
 H        -0.143689         0.881620        -0.316268
 H        -0.650213        -0.750322        -0.521244
 H         4.174023        -0.736095         0.325437
 H         1.868295        -2.657913        -0.121101
 H         0.769477        -2.689389         2.431178
 H         2.238312        -3.582247         2.162107
 H         2.311920        -1.885142         4.131041
 H         3.628479        -1.897874         2.765564
 H         2.371472         1.181197         1.479103
