19
Iteration:  4065
 C        -0.185203        -0.399636         0.277554
 C         1.276403        -0.571726         0.448579
 O         2.172958        -0.140752        -0.660111
 C         3.087429        -0.928394         0.394817
 C         1.957753        -1.952334         0.534966
 C         1.746819        -2.494642         2.022070
 C         2.412187        -1.628416         3.119289
 O         2.504932        -0.153614         2.880040
 C         2.395554         0.032574         1.437121
 H        -0.760272        -0.738797         1.176616
 H        -0.339984         0.667398         0.244705
 H        -0.463724        -1.058658        -0.550994
 H         4.099727        -0.841214         0.060258
 H         1.758923        -2.796203        -0.096920
 H         0.587491        -2.347395         2.179447
 H         1.911510        -3.584644         2.216353
 H         1.838054        -1.646491         4.095519
 H         3.515134        -1.923240         3.335509
 H         2.658257         1.086594         1.191242
