19
Iteration:  2326charge 0 multiplicity 1
 C        -0.125788        -0.130313         0.305813
 C         1.277740        -0.563207         0.451133
 O         2.251073        -0.284351        -0.639150
 C         3.073216        -0.727162         0.410921
 C         2.064773        -1.995962         0.587490
 C         1.677909        -2.553304         2.003781
 C         2.462358        -1.719619         2.988512
 O         2.416406        -0.282481         2.861691
 C         2.204204         0.059952         1.526819
 H        -0.544318        -0.296792         1.298388
 H        -0.016922         0.881587        -0.058177
 H        -0.507308        -0.790478        -0.423132
 H         4.172046        -0.979694         0.252377
 H         1.922462        -2.651717        -0.234577
 H         0.650103        -2.485086         2.223665
 H         2.109733        -3.647093         2.076628
 H         2.193012        -1.798547         4.038764
 H         3.551566        -1.949101         2.727791
 H         2.113587         1.129979         1.431026
