19
Iteration:  1807charge 0 multiplicity 1
 C        -0.145025        -0.243355         0.306171
 C         1.317485        -0.557602         0.458541
 O         2.192999        -0.225016        -0.630976
 C         3.066220        -0.786608         0.413247
 C         2.027928        -1.866194         0.668143
 C         1.728621        -2.520322         2.026314
 C         2.458700        -1.700541         3.051487
 O         2.363714        -0.312664         2.756249
 C         2.341833         0.039717         1.430661
 H        -0.692956        -0.683102         1.184954
 H        -0.182123         0.873654         0.306291
 H        -0.469670        -0.812971        -0.555595
 H         4.058305        -0.990764         0.149883
 H         2.068003        -2.715887        -0.045081
 H         0.735945        -2.190440         2.301935
 H         1.850406        -3.551080         2.034988
 H         2.086896        -1.991032         4.115234
 H         3.481135        -2.053242         3.057359
 H         2.543587         1.128230         1.372321
