19
Iteration:  1872charge 0 multiplicity 1
 C        -0.187947        -0.100695         0.310869
 C         1.238514        -0.421724         0.537646
 O         2.353355        -0.255689        -0.675187
 C         3.020138        -0.904183         0.398688
 C         1.780810        -1.915164         0.672397
 C         1.969878        -2.641530         2.038981
 C         2.530866        -1.664334         3.038838
 O         2.174735        -0.298522         2.767767
 C         2.404217         0.006000         1.419127
 H        -0.753344        -0.404215         1.203304
 H        -0.397367         0.928516        -0.056888
 H        -0.299515        -0.864647        -0.420493
 H         4.079495        -0.969439         0.354812
 H         1.590967        -2.515842        -0.272723
 H         0.846144        -2.987374         2.271676
 H         2.749970        -3.474501         1.857813
 H         2.207680        -1.764387         4.150160
 H         3.591937        -1.650085         3.187401
 H         2.786058         1.057884         1.427606
