19
Iteration:  1255charge 0 multiplicity 1
 C        -0.104579        -0.273246         0.346981
 C         1.312635        -0.437541         0.483371
 O         2.305358        -0.221035        -0.658376
 C         3.072427        -0.910757         0.453819
 C         1.774618        -1.861969         0.705055
 C         1.785416        -2.559961         2.026060
 C         2.476773        -1.658801         3.036056
 O         2.293920        -0.263723         2.741187
 C         2.384399         0.064257         1.389021
 H        -0.412810        -0.645233         1.374265
 H        -0.356825         0.716035        -0.053189
 H        -0.337421        -1.079058        -0.374632
 H         4.040246        -1.149915        -0.000481
 H         1.517043        -2.582148        -0.151969
 H         0.788904        -3.013585         2.429199
 H         2.320742        -3.450476         1.827828
 H         2.006101        -1.821646         3.987658
 H         3.693353        -1.887554         3.086758
 H         2.665533         1.123982         1.448478
