19
Iteration:  4247
 C        -0.180867        -0.334850         0.383491
 C         1.338118        -0.508618         0.408709
 O         2.257307        -0.238887        -0.694381
 C         3.145438        -0.855450         0.278558
 C         1.948411        -1.932447         0.641712
 C         1.708734        -2.454799         2.059735
 C         2.422338        -1.648561         3.088221
 O         2.359393        -0.235250         2.849782
 C         2.386858         0.082512         1.433092
 H        -0.490910        -0.249009         1.496779
 H        -0.727108         0.282260        -0.386653
 H        -0.463100        -1.416614         0.189818
 H         4.217327        -1.083302         0.202235
 H         1.920392        -2.713529        -0.137311
 H         0.596267        -2.417335         2.220782
 H         1.843562        -3.558961         2.349965
 H         1.988585        -1.978858         4.005364
 H         3.482767        -1.872362         2.968045
 H         2.478106         1.218653         1.262480
