19
Iteration:  1975
 C        -0.243026        -0.297531         0.240261
 C         1.315111        -0.400098         0.545588
 O         2.243348        -0.198097        -0.595336
 C         3.134530        -0.927760         0.307467
 C         1.858290        -1.855207         0.659126
 C         1.765825        -2.529467         1.997946
 C         2.496200        -1.720996         3.064524
 O         2.325836        -0.244233         2.872692
 C         2.474720         0.011903         1.454068
 H        -0.761395        -0.742576         1.144261
 H        -0.598766         0.669886        -0.177356
 H        -0.279620        -1.011823        -0.680779
 H         4.213564        -1.137012        -0.017526
 H         1.482896        -2.471996        -0.110250
 H         0.545438        -2.740602         2.209062
 H         2.140094        -3.505913         1.853606
 H         2.154724        -1.867273         4.045557
 H         3.584316        -1.780155         2.947733
 H         2.730155         1.091260         1.313747
