19
Iteration:  3700
 C        -0.246680        -0.361178         0.331476
 C         1.346915        -0.538280         0.402958
 O         2.255949        -0.234906        -0.745391
 C         3.087801        -0.778154         0.322176
 C         1.989317        -1.831152         0.640255
 C         1.644336        -2.485543         2.063750
 C         2.452661        -1.732838         3.124127
 O         2.391286        -0.295227         2.840453
 C         2.435706         0.101367         1.506101
 H        -0.437029        -1.019802         1.146008
 H        -0.543979         0.714216         0.331543
 H        -0.673768        -0.709176        -0.649874
 H         4.203585        -0.858378         0.339832
 H         1.938275        -2.502432        -0.274395
 H         0.627843        -2.389645         2.139720
 H         1.937093        -3.482101         2.227227
 H         2.191071        -1.875205         4.139008
 H         3.490779        -2.244648         3.151338
 H         2.330072         1.151954         1.419139
