19
Iteration:  3944charge 0 multiplicity 1
 C        -0.232085        -0.129160         0.177649
 C         1.258852        -0.515498         0.577701
 O         2.220185        -0.401963        -0.671360
 C         3.051041        -0.873138         0.470012
 C         1.894534        -1.920106         0.710163
 C         1.896411        -2.612989         1.996612
 C         2.641083        -1.627710         3.042082
 O         2.236673        -0.223462         2.802922
 C         2.353321         0.111584         1.448320
 H        -0.979414        -0.454100         0.987843
 H        -0.235467         0.974555         0.056957
 H        -0.364392        -0.740300        -0.748601
 H         4.070716        -0.988845         0.175256
 H         1.917284        -2.392529        -0.267413
 H         0.864084        -2.909088         2.354760
 H         2.377375        -3.632653         2.023732
 H         2.316970        -1.773602         4.085870
 H         3.662460        -1.715095         2.927497
 H         2.631867         1.228851         1.416585
