19
Iteration:  3490charge 0 multiplicity 1
 C        -0.214208        -0.254206         0.419354
 C         1.310463        -0.519576         0.388076
 O         2.247120        -0.161896        -0.663539
 C         3.128951        -0.857313         0.473443
 C         2.015268        -1.960315         0.614876
 C         1.850888        -2.586115         1.951666
 C         2.327701        -1.686695         3.122573
 O         2.341721        -0.244985         2.797471
 C         2.386161         0.036877         1.368542
 H        -0.545060        -0.142760         1.517555
 H        -0.547299         0.674508        -0.153004
 H        -0.843436        -0.980563        -0.108190
 H         4.239863        -0.714533         0.218128
 H         1.845353        -2.601975        -0.267731
 H         0.680148        -2.817545         2.209933
 H         2.237643        -3.593509         1.883877
 H         1.853237        -1.718961         4.099908
 H         3.371096        -1.924619         3.387068
 H         2.565264         1.050201         1.188386
