19
Iteration:  3545charge 0 multiplicity 1
 C        -0.204792        -0.272416         0.196218
 C         1.277844        -0.416588         0.416915
 O         2.249819        -0.155474        -0.688015
 C         3.072849        -0.805569         0.409107
 C         1.994602        -1.923372         0.667071
 C         1.796980        -2.601769         2.069530
 C         2.470212        -1.765914         3.165914
 O         2.357559        -0.341504         2.799514
 C         2.346435         0.099036         1.483531
 H        -0.643514        -0.002562         1.227173
 H        -0.621415         0.511480        -0.553837
 H        -0.531517        -1.299194        -0.073549
 H         4.111087        -1.035672        -0.053585
 H         1.886029        -2.547409        -0.245458
 H         0.661624        -2.502356         2.453683
 H         2.075307        -3.647375         2.051532
 H         2.079590        -1.665875         4.205019
 H         3.595650        -1.945934         3.100039
 H         2.558539         1.118094         1.389759
