19
Iteration:  3731charge 0 multiplicity 1
 C        -0.181669        -0.317008         0.251673
 C         1.273782        -0.527082         0.515792
 O         2.230487        -0.196426        -0.556177
 C         3.070326        -0.895336         0.477607
 C         1.946758        -1.900083         0.606603
 C         1.730469        -2.522025         1.991751
 C         2.546601        -1.651679         2.985155
 O         2.355123        -0.243162         2.779475
 C         2.402780         0.068365         1.454560
 H        -0.779967        -0.301725         1.186164
 H        -0.374661         0.708330        -0.212721
 H        -0.532604        -1.112058        -0.462402
 H         4.223697        -1.076422         0.424184
 H         1.729362        -2.564424        -0.257968
 H         0.599694        -2.633519         2.256925
 H         2.007690        -3.634749         2.192136
 H         2.198477        -1.738506         4.017065
 H         3.579742        -1.988936         2.749867
 H         2.449418         1.108398         1.324174
