19
Iteration:  1388charge 0 multiplicity 1
 C        -0.204511        -0.088333         0.306029
 C         1.254557        -0.541295         0.476194
 O         2.292752        -0.256126        -0.618375
 C         3.008738        -0.937601         0.409189
 C         1.923739        -1.930928         0.639466
 C         1.877898        -2.613827         2.085527
 C         2.578494        -1.629731         3.084229
 O         2.242749        -0.256191         2.753339
 C         2.358546         0.044850         1.407795
 H        -0.990604        -0.661614         0.794735
 H        -0.187175         0.997476         0.354680
 H        -0.547566        -0.314178        -0.762733
 H         4.097259        -1.157813         0.171286
 H         1.858585        -2.729660        -0.168266
 H         0.806303        -2.747808         2.257552
 H         2.269921        -3.588364         2.008236
 H         2.281295        -1.849773         4.061529
 H         3.668450        -1.721542         3.079656
 H         2.539523         1.122339         1.329940
