19
Iteration:  2592charge 0 multiplicity 1
 C        -0.109340        -0.175688         0.287855
 C         1.355370        -0.477477         0.537492
 O         2.210057        -0.218356        -0.661007
 C         3.090931        -0.889331         0.350796
 C         1.871525        -1.843104         0.715125
 C         1.890974        -2.642326         1.950630
 C         2.540763        -1.700059         3.041757
 O         2.146358        -0.312533         2.847840
 C         2.389782         0.041878         1.456940
 H        -0.866415        -0.498543         0.922201
 H        -0.429713         0.856465         0.070988
 H        -0.229370        -0.520407        -0.765832
 H         4.127242        -0.897655         0.116093
 H         1.507085        -2.333420        -0.230266
 H         0.801154        -3.057540         2.300963
 H         2.470312        -3.723297         1.873198
 H         2.204473        -1.687753         4.131412
 H         3.617314        -1.765222         3.319382
 H         2.665573         1.143059         1.373452
