19
Iteration:   199charge 0 multiplicity 1
 C        -0.196331         0.019532         0.269098
 C         1.242189        -0.589774         0.422830
 O         2.191867        -0.339565        -0.692312
 C         3.123890        -0.805615         0.440663
 C         1.982428        -1.986920         0.598550
 C         1.818740        -2.519962         2.063558
 C         2.550410        -1.723539         3.140452
 O         2.317804        -0.314789         2.808971
 C         2.307546         0.016500         1.460262
 H        -0.497752         0.558002         1.219578
 H        -0.001182         0.789310        -0.491007
 H        -0.959229        -0.654652        -0.008746
 H         4.113285        -0.779152        -0.021287
 H         1.885003        -2.660718        -0.272448
 H         0.785617        -2.527851         2.310650
 H         2.080851        -3.638628         2.169281
 H         2.162402        -1.956818         4.117519
 H         3.753586        -1.879291         3.105400
 H         2.509148         1.077421         1.443311
