19
Iteration:  1863
 C        -0.166539        -0.139077         0.306059
 C         1.265959        -0.424479         0.498183
 O         2.308857        -0.246766        -0.642968
 C         3.073480        -0.932257         0.441547
 C         1.821848        -1.890250         0.589141
 C         1.949419        -2.594827         1.990309
 C         2.529113        -1.662246         3.115476
 O         2.225856        -0.324525         2.786869
 C         2.348591         0.056642         1.394177
 H        -0.760799        -0.356632         1.220780
 H        -0.524906         0.903154         0.038304
 H        -0.684161        -0.697941        -0.530087
 H         4.146358        -1.139531         0.420498
 H         1.445045        -2.610748        -0.177097
 H         1.139068        -3.042270         2.566844
 H         2.503611        -3.485842         2.006079
 H         1.953344        -1.913708         4.100858
 H         3.577812        -1.756577         3.189568
 H         2.722275         1.070107         1.025297
