19
Iteration:  4862charge 0 multiplicity 1
 C        -0.246331         0.030697         0.374436
 C         1.227178        -0.612703         0.384648
 O         2.255789        -0.243527        -0.669302
 C         3.128471        -0.936607         0.297232
 C         2.058383        -1.978549         0.644842
 C         1.983817        -2.539159         2.005668
 C         2.492030        -1.693101         3.098394
 O         2.160736        -0.232806         2.821646
 C         2.323992        -0.043416         1.485424
 H        -0.906089        -0.571127         0.941872
 H        -0.284766         0.989398         0.888648
 H        -0.564220         0.057488        -0.656548
 H         4.143585        -1.099579         0.044932
 H         1.856000        -2.788269        -0.049587
 H         0.964205        -2.994177         2.174392
 H         2.570973        -3.454655         2.195612
 H         1.867133        -1.893567         4.053013
 H         3.531480        -1.624258         3.271349
 H         2.479572         1.061925         1.390589
