19
Iteration:  2731
 C        -0.147671        -0.040996         0.366738
 C         1.295444        -0.629798         0.462845
 O         2.217473        -0.279811        -0.670186
 C         3.124623        -0.804668         0.410283
 C         2.024809        -1.922514         0.593029
 C         1.918552        -2.623491         1.988088
 C         2.449737        -1.689724         3.079975
 O         2.246157        -0.276039         2.815096
 C         2.239367         0.039552         1.440588
 H        -0.785333        -0.420811         1.284747
 H        -0.073281         1.080324         0.498087
 H        -0.497501        -0.253575        -0.723112
 H         4.274419        -0.722599         0.352998
 H         1.940585        -2.702854        -0.187397
 H         0.822810        -2.763505         1.975758
 H         2.330745        -3.604451         1.935632
 H         1.830230        -1.946348         4.018355
 H         3.495588        -2.053043         3.276579
 H         2.318796         1.126359         1.334069
