19
Iteration:  1549
 C        -0.159402        -0.071170         0.255557
 C         1.252498        -0.517919         0.488133
 O         2.224803        -0.317901        -0.633699
 C         3.065336        -0.960574         0.454263
 C         1.891755        -1.926044         0.673861
 C         1.945288        -2.585500         2.002387
 C         2.581688        -1.636878         3.009560
 O         2.178370        -0.268357         2.817782
 C         2.332884         0.069914         1.459374
 H        -0.780734        -0.299868         1.111981
 H        -0.070090         1.008300         0.184951
 H        -0.525548        -0.641807        -0.642009
 H         4.151062        -1.181321         0.419181
 H         1.564342        -2.509846        -0.191303
 H         0.859961        -2.797273         2.205091
 H         2.559966        -3.540016         1.864721
 H         2.408764        -1.932987         4.026838
 H         3.700665        -1.482405         2.979142
 H         2.686521         1.081418         1.166384
