19
Iteration:  4431charge 0 multiplicity 1
 C        -0.208448        -0.381610         0.336877
 C         1.306938        -0.487086         0.538943
 O         2.292060        -0.269430        -0.746195
 C         3.049131        -0.840480         0.390936
 C         1.948281        -1.902581         0.677826
 C         1.728954        -2.528894         2.003409
 C         2.383623        -1.706362         3.098272
 O         2.453073        -0.177387         2.817522
 C         2.420968         0.117983         1.439506
 H        -0.782082        -0.445200         1.247375
 H        -0.448143         0.521050        -0.128251
 H        -0.754201        -1.110113        -0.259746
 H         4.196473        -0.941648         0.124985
 H         1.554950        -2.601648        -0.059457
 H         0.598818        -2.678484         2.110638
 H         2.224546        -3.557005         1.955166
 H         1.955241        -1.700028         4.060135
 H         3.435706        -1.956161         3.098857
 H         2.489197         1.161893         1.065478
