19
Iteration:  1743
 C        -0.111267        -0.111038         0.229710
 C         1.264748        -0.531567         0.443104
 O         2.180713        -0.224087        -0.656357
 C         3.111002        -0.851548         0.416958
 C         1.925532        -1.938648         0.699216
 C         1.832810        -2.637544         2.087467
 C         2.576189        -1.707817         3.050822
 O         2.242969        -0.293318         2.811459
 C         2.353184         0.049243         1.445719
 H        -0.851936        -0.237859         1.102536
 H        -0.185495         1.035729         0.049908
 H        -0.633171        -0.638441        -0.665152
 H         4.140610        -0.975998         0.102050
 H         1.754265        -2.455260        -0.247835
 H         0.793917        -2.804764         2.393931
 H         2.179220        -3.696101         1.962259
 H         2.355144        -1.831637         4.199110
 H         3.741183        -1.759501         2.921039
 H         2.433363         1.175616         1.411339
