19
Iteration:   446charge 0 multiplicity 1
 C        -0.249703        -0.259430         0.309880
 C         1.253854        -0.453105         0.546676
 O         2.374395        -0.234041        -0.668243
 C         3.060727        -1.059769         0.390028
 C         1.784015        -1.889057         0.647403
 C         1.786048        -2.553746         1.937647
 C         2.530042        -1.647843         3.015527
 O         2.323791        -0.223696         2.860995
 C         2.441075         0.139230         1.435127
 H        -0.677038         0.151869         1.261732
 H        -0.393946         0.552121        -0.464875
 H        -0.639861        -1.256438         0.043038
 H         4.066607        -1.285695         0.448638
 H         1.567865        -2.567025        -0.188463
 H         0.769256        -2.726518         2.372185
 H         2.317513        -3.425288         1.955256
 H         2.119981        -1.972880         4.008664
 H         3.664333        -1.805712         3.018523
 H         2.699692         1.138294         1.257716
