19
Iteration:   831
 C        -0.208136        -0.116061         0.309714
 C         1.264849        -0.455334         0.424504
 O         2.282178        -0.201958        -0.665001
 C         3.037518        -0.938441         0.348081
 C         1.932249        -2.032956         0.686637
 C         1.868536        -2.628370         2.076721
 C         2.531976        -1.642635         3.080186
 O         2.228541        -0.259209         2.802381
 C         2.411448         0.041623         1.404417
 H        -0.693233        -0.336532         1.270160
 H        -0.177975         0.948970         0.103766
 H        -0.862474        -0.515983        -0.417778
 H         4.173168        -0.991773         0.279574
 H         1.526203        -2.581186        -0.148544
 H         0.881382        -2.925063         2.309538
 H         2.426864        -3.637677         2.177762
 H         2.221499        -1.774038         4.087683
 H         3.547586        -1.872259         3.014495
 H         2.658037         1.120079         1.343097
