19
Iteration:  2367
 C        -0.141001        -0.170776         0.293264
 C         1.363432        -0.385226         0.471459
 O         2.279870        -0.164372        -0.676222
 C         3.049683        -0.997383         0.347949
 C         1.844115        -1.920353         0.651352
 C         1.876509        -2.589286         2.033074
 C         2.508076        -1.671739         3.068550
 O         2.211942        -0.311004         2.836613
 C         2.364462         0.029436         1.481384
 H        -0.618884        -0.775348         1.073645
 H        -0.623050         0.821487         0.310261
 H        -0.502227        -0.755238        -0.558332
 H         4.122086        -1.062348        -0.069157
 H         1.720601        -2.590335        -0.220619
 H         0.751065        -2.865191         2.203966
 H         2.492510        -3.393967         2.038462
 H         2.018113        -1.879002         4.043818
 H         3.598143        -1.742378         3.124263
 H         2.723046         1.105854         1.508318
