19
Iteration:  3827charge 0 multiplicity 1
 C        -0.166572        -0.123496         0.286074
 C         1.258147        -0.588119         0.449889
 O         2.278648        -0.235497        -0.667562
 C         3.041282        -0.912487         0.455520
 C         1.910159        -1.978229         0.584152
 C         1.954834        -2.501046         2.007745
 C         2.594030        -1.586428         3.153591
 O         2.159837        -0.290647         2.806136
 C         2.308840        -0.005118         1.388956
 H        -0.459151        -0.117253         1.352760
 H        -0.026243         0.949302         0.234561
 H        -0.883261        -0.657362        -0.311476
 H         4.105967        -1.162332         0.244890
 H         1.703266        -2.688452        -0.225782
 H         0.949921        -2.782401         2.417402
 H         2.414449        -3.508173         2.030731
 H         2.099667        -1.989074         4.086208
 H         3.644023        -1.521847         3.016336
 H         2.556895         1.023011         1.206790
