19
Iteration:  4244charge 0 multiplicity 1
 C        -0.186868        -0.328930         0.375415
 C         1.370597        -0.539967         0.445127
 O         2.258793        -0.220071        -0.695956
 C         3.123717        -0.850815         0.279669
 C         1.938032        -1.941334         0.633639
 C         1.716873        -2.467723         2.078632
 C         2.417649        -1.638571         3.076364
 O         2.357059        -0.223539         2.847058
 C         2.387402         0.061915         1.446826
 H        -0.411663        -0.280246         1.428912
 H        -0.664850         0.224422        -0.447090
 H        -0.486255        -1.358675         0.168451
 H         4.252525        -1.128403         0.099154
 H         1.812303        -2.710733        -0.178766
 H         0.612802        -2.324544         2.240017
 H         1.875182        -3.498161         2.199330
 H         1.931570        -1.938084         4.023815
 H         3.521863        -1.777224         2.916966
 H         2.435276         1.152105         1.286632
