19
Iteration:  2137charge 0 multiplicity 1
 C        -0.201346        -0.173225         0.238363
 C         1.259989        -0.564258         0.460524
 O         2.235498        -0.222023        -0.633048
 C         3.064377        -0.760292         0.391377
 C         2.041956        -1.954660         0.560924
 C         1.727075        -2.480878         2.082232
 C         2.509473        -1.700205         3.093330
 O         2.366002        -0.345803         2.843564
 C         2.373878        -0.031652         1.497446
 H        -0.753668        -0.274833         1.135505
 H        -0.325491         0.819695        -0.111701
 H        -0.793404        -0.740564        -0.490162
 H         4.099920        -0.702901        -0.011586
 H         1.806914        -2.651321        -0.240932
 H         0.739438        -2.228625         2.169107
 H         1.952678        -3.624118         1.916175
 H         2.137302        -1.856764         4.149663
 H         3.581259        -1.963856         2.898794
 H         2.566274         1.075796         1.516223
