19
Iteration:    97charge 0 multiplicity 1
 C        -0.176982        -0.102842         0.318749
 C         1.276545        -0.564594         0.499687
 O         2.171654        -0.304017        -0.648457
 C         3.088476        -0.911544         0.384078
 C         2.021190        -1.983892         0.640732
 C         1.714417        -2.532238         2.073529
 C         2.511345        -1.657526         3.071218
 O         2.387240        -0.242433         2.780582
 C         2.360467         0.057548         1.421998
 H        -1.009428        -0.718900         0.502348
 H        -0.256186         0.874463         0.786336
 H        -0.082784         0.056748        -0.818820
 H         4.125351        -1.126084         0.104347
 H         1.868680        -2.633924        -0.203806
 H         0.615447        -2.381151         2.094570
 H         1.851626        -3.683277         2.121876
 H         2.030210        -1.749408         4.120436
 H         3.681435        -1.894197         3.223292
 H         2.624175         1.125430         1.222490
