19
Iteration:   625charge 0 multiplicity 1
 C        -0.192321        -0.139797         0.265213
 C         1.316470        -0.478137         0.360783
 O         2.177407        -0.243472        -0.673955
 C         3.073786        -0.888614         0.401381
 C         1.887775        -1.911769         0.621801
 C         1.794026        -2.591534         2.087736
 C         2.525577        -1.653892         3.066779
 O         2.387224        -0.276055         2.859070
 C         2.399333        -0.027465         1.500282
 H        -0.770599        -0.275363         1.229879
 H        -0.457774         0.811977        -0.274825
 H        -0.591441        -0.740306        -0.589046
 H         4.244414        -0.897982         0.337042
 H         1.641502        -2.621925        -0.192124
 H         0.766231        -2.658824         2.463066
 H         2.105312        -3.571520         2.291954
 H         2.216459        -1.829304         4.071878
 H         3.571237        -1.899483         3.004819
 H         2.522642         1.078833         1.232612
