19
Iteration:   194
 C        -0.139259         0.049423         0.283034
 C         1.230747        -0.621300         0.397649
 O         2.215887        -0.307146        -0.728792
 C         3.071217        -0.754449         0.360342
 C         2.001496        -2.062464         0.684848
 C         1.821025        -2.510228         2.079356
 C         2.559835        -1.733445         3.091248
 O         2.320862        -0.332094         2.841524
 C         2.270752         0.016415         1.466373
 H        -0.466270         0.436594         1.216402
 H         0.141137         0.855035        -0.406110
 H        -0.874670        -0.802366         0.062518
 H         4.134882        -0.675393         0.038087
 H         1.808035        -2.664306        -0.203676
 H         0.706847        -2.435911         2.422303
 H         2.053599        -3.591554         2.243397
 H         2.050509        -1.941521         4.075578
 H         3.546051        -1.895414         3.174939
 H         2.457374         1.115592         1.399192
