19
Iteration:  2572charge 0 multiplicity 1
 C        -0.182476        -0.145513         0.306379
 C         1.260652        -0.372586         0.454383
 O         2.315104        -0.209404        -0.641095
 C         3.001637        -0.932578         0.433842
 C         1.880238        -1.906154         0.649772
 C         1.978744        -2.612733         2.031760
 C         2.451755        -1.686025         3.029647
 O         2.157352        -0.344796         2.813077
 C         2.433403         0.070659         1.436225
 H        -0.525205        -0.802602         1.107438
 H        -0.440689         0.903608         0.538142
 H        -0.557451        -0.459707        -0.683100
 H         3.952310        -1.264578         0.062302
 H         1.771652        -2.641789        -0.207053
 H         1.045474        -3.105690         2.100035
 H         2.707920        -3.531454         1.821376
 H         2.097342        -1.788242         4.106833
 H         3.619059        -1.774933         3.163668
 H         2.810640         1.145455         1.320839
