19
Iteration:  3973
 C        -0.133496        -0.037700         0.270447
 C         1.254360        -0.527839         0.392723
 O         2.301138        -0.254149        -0.707651
 C         2.983947        -0.965059         0.447274
 C         1.885157        -1.999474         0.706439
 C         1.974900        -2.603783         2.129909
 C         2.684971        -1.575024         3.088391
 O         2.112849        -0.301380         2.756205
 C         2.191228         0.016534         1.436591
 H        -0.522212         0.051448         1.248425
 H        -0.056498         1.010062        -0.013588
 H        -0.689186        -0.772258        -0.254897
 H         4.036740        -1.110257         0.143596
 H         1.978706        -2.574815        -0.227492
 H         0.911899        -2.768409         2.432064
 H         2.645425        -3.523799         2.084894
 H         2.541942        -1.773899         4.123831
 H         3.884642        -1.638429         2.848437
 H         2.473756         1.081482         1.358135
