19
Iteration:   924
 C        -0.243139        -0.183690         0.252985
 C         1.218592        -0.520454         0.488007
 O         2.233840        -0.281791        -0.612568
 C         3.071698        -0.892726         0.439840
 C         2.006373        -1.891945         0.591469
 C         1.726737        -2.528422         1.987877
 C         2.563977        -1.665225         3.054561
 O         2.385889        -0.245695         2.843665
 C         2.398483         0.007742         1.487440
 H        -0.805198        -0.441331         1.100774
 H        -0.283576         0.821034        -0.145389
 H        -0.760797        -0.755116        -0.507423
 H         4.096379        -0.947316         0.182888
 H         1.877312        -2.556056        -0.293237
 H         0.573150        -2.587678         2.080332
 H         1.951051        -3.548054         2.126664
 H         2.324455        -1.912170         4.114386
 H         3.591235        -1.820903         2.977930
 H         2.547300         1.073561         1.229822
