19
Iteration:   415charge 0 multiplicity 1
 C        -0.103215        -0.191786         0.230640
 C         1.282000        -0.570649         0.422145
 O         2.163042        -0.199197        -0.689541
 C         3.080933        -0.881776         0.411870
 C         1.892492        -1.934447         0.691560
 C         1.702718        -2.508343         2.089019
 C         2.582718        -1.689996         3.050819
 O         2.370351        -0.332231         2.831316
 C         2.370977         0.079770         1.441528
 H        -0.477356         0.096826         1.261432
 H        -0.163132         0.702273        -0.427566
 H        -0.787361        -0.861047        -0.287679
 H         4.150983        -0.930555         0.360481
 H         1.903507        -2.703860        -0.050723
 H         0.672962        -2.539804         2.440109
 H         1.986177        -3.515916         2.174315
 H         2.370742        -1.860476         4.092469
 H         3.557262        -1.878434         2.908599
 H         2.482670         1.147737         1.391288
