19
Iteration:  2034charge 0 multiplicity 1
 C        -0.150008        -0.045021         0.355895
 C         1.254985        -0.559654         0.439171
 O         2.191539        -0.304659        -0.714080
 C         3.107743        -0.825382         0.438909
 C         2.063564        -1.979395         0.659419
 C         1.856578        -2.622920         2.058811
 C         2.478680        -1.691232         2.997020
 O         2.217235        -0.261145         2.813496
 C         2.343111         0.086055         1.443749
 H        -0.798168        -0.256650         1.258460
 H         0.006735         1.072793         0.440687
 H        -0.651246        -0.347376        -0.557423
 H         4.179815        -0.969125         0.293309
 H         2.037693        -2.699647        -0.237786
 H         0.672571        -2.617004         2.023828
 H         2.194186        -3.735176         2.100463
 H         2.255928        -2.151175         3.994608
 H         3.542462        -1.975221         3.012132
 H         2.494500         1.169871         1.546777
