19
Iteration:  1505charge 0 multiplicity 1
 C        -0.181689        -0.077644         0.278435
 C         1.273255        -0.596928         0.410302
 O         2.154440        -0.222049        -0.662284
 C         3.117780        -0.871955         0.507957
 C         2.015769        -1.942601         0.707905
 C         1.834975        -2.559289         2.053125
 C         2.574903        -1.702909         3.048391
 O         2.250634        -0.335250         2.743317
 C         2.320391         0.066728         1.392201
 H        -0.521490        -0.021666         1.281411
 H         0.160519         0.825447        -0.192477
 H        -0.885939        -0.736419        -0.275038
 H         4.182382        -0.911194         0.328390
 H         1.941837        -2.667219        -0.077660
 H         0.855090        -2.451650         2.511577
 H         2.153750        -3.638218         2.218251
 H         2.153348        -1.724503         4.023341
 H         3.546594        -1.880434         3.149228
 H         2.398387         1.122761         1.136169
