19
Iteration:  1871
 C        -0.183541        -0.103883         0.311971
 C         1.236775        -0.418455         0.536373
 O         2.350798        -0.256053        -0.671495
 C         3.028140        -0.903591         0.402166
 C         1.778720        -1.913577         0.660629
 C         1.970217        -2.632958         2.034241
 C         2.525161        -1.667311         3.047245
 O         2.180648        -0.303753         2.769989
 C         2.398615         0.010133         1.413793
 H        -0.754156        -0.396817         1.197165
 H        -0.422130         0.902762        -0.048274
 H        -0.325309        -0.839157        -0.425339
 H         4.090136        -0.972781         0.384074
 H         1.573260        -2.525057        -0.270628
 H         0.847698        -2.996257         2.315294
 H         2.761708        -3.510673         1.878464
 H         2.195552        -1.761472         4.130306
 H         3.623322        -1.634768         3.203988
 H         2.787124         1.036087         1.364430
