19
Iteration:  1683
 C        -0.163242        -0.146036         0.334781
 C         1.323071        -0.492923         0.535078
 O         2.335507        -0.181643        -0.658738
 C         3.008928        -0.976227         0.384560
 C         1.871182        -1.957621         0.649102
 C         1.913723        -2.645989         2.013264
 C         2.468061        -1.585405         3.005125
 O         2.204744        -0.273008         2.802671
 C         2.353875         0.039542         1.470724
 H        -0.741405        -0.165884         1.288205
 H        -0.257195         0.837148        -0.147023
 H        -0.560527        -0.757694        -0.496197
 H         4.096854        -0.973590         0.031511
 H         1.406787        -2.647293        -0.124667
 H         0.926266        -3.118785         2.318427
 H         2.650418        -3.453143         2.204886
 H         2.246943        -1.890396         4.012561
 H         3.650647        -1.703885         2.815738
 H         2.562329         1.115075         1.269025
