19
Iteration:  4946
 C        -0.163875        -0.298455         0.164082
 C         1.212638        -0.618917         0.372344
 O         2.257488        -0.115145        -0.526647
 C         3.055334        -0.822395         0.415388
 C         1.968117        -1.884308         0.640265
 C         1.686662        -2.430459         2.059278
 C         2.626319        -1.741085         3.077817
 O         2.422512        -0.346323         2.808258
 C         2.226405         0.065451         1.456442
 H        -0.434612         0.131956         1.125845
 H        -0.179998         0.436527        -0.727153
 H        -0.845530        -1.142659        -0.011672
 H         4.150615        -0.932015         0.407618
 H         1.914099        -2.621641        -0.113399
 H         0.664914        -2.306858         2.138726
 H         1.995162        -3.464649         2.198280
 H         2.306378        -2.170341         4.006272
 H         3.736403        -2.136662         2.997014
 H         2.409627         1.145095         1.432359
