19
Iteration:  2471
 C        -0.245149        -0.260133         0.261187
 C         1.257153        -0.525039         0.441009
 O         2.344141        -0.088182        -0.523802
 C         3.053963        -0.955872         0.484868
 C         1.846719        -1.915888         0.571234
 C         1.747678        -2.589828         1.978198
 C         2.527973        -1.661293         2.995130
 O         2.349810        -0.247122         2.860933
 C         2.393030         0.034621         1.438413
 H        -0.731005        -0.210846         1.221434
 H        -0.414260         0.610385        -0.356268
 H        -0.523073        -1.091166        -0.407749
 H         4.064440        -1.253598         0.375928
 H         1.735206        -2.408719        -0.416128
 H         0.711728        -2.824074         2.171907
 H         2.345244        -3.594758         1.873445
 H         2.396276        -2.052584         4.048299
 H         3.655940        -1.615943         2.847903
 H         2.615367         1.084584         1.399445
