19
Iteration:  1842charge 0 multiplicity 1
 C        -0.118606        -0.136294         0.321164
 C         1.217675        -0.580120         0.397605
 O         2.236213        -0.229333        -0.674216
 C         3.055083        -0.848683         0.367169
 C         1.970499        -1.940616         0.642725
 C         1.841054        -2.588689         1.995881
 C         2.428629        -1.676545         3.059907
 O         2.339517        -0.246856         2.870958
 C         2.351746         0.011806         1.513564
 H        -0.724175        -0.416320         1.220158
 H        -0.338956         0.955666         0.133311
 H        -0.708873        -0.517948        -0.608742
 H         4.135912        -0.991223         0.132402
 H         2.081805        -2.739661        -0.109714
 H         0.819869        -2.854307         2.179947
 H         2.302305        -3.542429         2.136905
 H         2.065110        -1.752758         4.149164
 H         3.548491        -1.712065         3.024877
 H         2.588209         1.088736         1.203379
