19
Iteration:   460
 C        -0.110528        -0.219238         0.369564
 C         1.310959        -0.470291         0.424618
 O         2.333964        -0.241999        -0.688225
 C         3.011162        -0.914306         0.445900
 C         1.800611        -1.881405         0.619763
 C         1.811517        -2.543362         2.041067
 C         2.483396        -1.646078         3.049730
 O         2.318003        -0.237961         2.810679
 C         2.369075        -0.015464         1.449582
 H        -0.461058         0.125901         1.408556
 H        -0.480403         0.454858        -0.432502
 H        -0.753709        -1.045472         0.004436
 H         4.031569        -1.269305         0.072663
 H         1.485856        -2.510744        -0.207783
 H         0.870440        -3.003988         2.302361
 H         2.344093        -3.506113         1.895209
 H         2.188452        -1.722440         4.059591
 H         3.464115        -1.825468         3.000096
 H         2.702988         1.058152         1.320337
