19
Iteration:   891charge 0 multiplicity 1
 C        -0.127195        -0.115605         0.350716
 C         1.300412        -0.580297         0.433489
 O         2.243289        -0.232517        -0.673024
 C         3.041637        -0.818973         0.310968
 C         2.044882        -1.885971         0.666497
 C         1.750191        -2.610969         2.107126
 C         2.503151        -1.677211         3.130572
 O         2.302346        -0.311779         2.757597
 C         2.277879        -0.025930         1.412979
 H        -0.413053         0.217272         1.315370
 H        -0.060755         0.910748        -0.026753
 H        -0.811963        -0.736080        -0.215937
 H         4.083721        -0.872277         0.229477
 H         1.927189        -2.600213        -0.178659
 H         0.604022        -2.773609         2.055630
 H         2.316101        -3.471750         2.142649
 H         2.336113        -1.818808         4.223719
 H         3.497708        -1.854950         2.957682
 H         2.233550         1.071908         1.376651
