19
Iteration:  1386charge 0 multiplicity 1
 C        -0.208945        -0.089454         0.292270
 C         1.241796        -0.546518         0.464911
 O         2.304883        -0.242009        -0.603333
 C         2.997560        -0.951118         0.382063
 C         1.914948        -1.921774         0.657460
 C         1.877890        -2.631158         2.080299
 C         2.567543        -1.625707         3.084238
 O         2.232394        -0.252175         2.747575
 C         2.371739         0.047263         1.412644
 H        -0.915339        -0.706470         0.866750
 H        -0.180812         0.995775         0.382591
 H        -0.504999        -0.357729        -0.772950
 H         4.046658        -1.180672         0.197401
 H         1.834304        -2.682700        -0.153059
 H         0.835088        -2.756998         2.320519
 H         2.332917        -3.565314         1.988772
 H         2.334122        -1.792823         4.135724
 H         3.762810        -1.735982         3.029646
 H         2.639285         1.101548         1.395561
