19
Iteration:  4080charge 0 multiplicity 1
 C        -0.086203        -0.386646         0.289218
 C         1.323218        -0.626993         0.500473
 O         2.166687        -0.197814        -0.586983
 C         3.069408        -0.792773         0.315161
 C         1.953094        -1.974403         0.665339
 C         1.664725        -2.435638         2.035823
 C         2.476372        -1.616068         3.104500
 O         2.454995        -0.206365         2.765973
 C         2.392644         0.032496         1.423855
 H        -0.695875        -0.971257         0.998012
 H        -0.496541         0.706296         0.302808
 H        -0.452898        -0.661170        -0.756799
 H         4.173338        -1.071540         0.097642
 H         1.791613        -2.519340        -0.304085
 H         0.542346        -2.537535         2.283363
 H         1.950236        -3.501609         2.146877
 H         1.824030        -1.708069         3.985936
 H         3.429577        -1.960982         3.214593
 H         2.412260         1.087029         1.341926
