19
Iteration:  1273charge 0 multiplicity 1
 C        -0.175908        -0.286699         0.281557
 C         1.277221        -0.401408         0.483943
 O         2.242796        -0.201579        -0.666677
 C         3.058048        -0.964342         0.354821
 C         1.940034        -1.908886         0.671049
 C         1.753796        -2.596082         2.025711
 C         2.461767        -1.673499         3.069930
 O         2.298481        -0.249982         2.809638
 C         2.527642         0.103258         1.460139
 H        -0.705901        -0.304820         1.242000
 H        -0.594664         0.557447        -0.323893
 H        -0.693259        -1.178108        -0.137053
 H         4.123913        -1.094106         0.295195
 H         1.641226        -2.331574        -0.261451
 H         0.744251        -2.800950         2.278502
 H         2.205505        -3.624922         2.090771
 H         2.199535        -1.800946         4.191388
 H         3.467467        -1.864459         3.007401
 H         2.778350         1.194058         1.347004
