19
Iteration:  3300
 C        -0.125403        -0.134419         0.459203
 C         1.353058        -0.562597         0.431488
 O         2.205106        -0.191624        -0.608893
 C         3.153424        -0.818402         0.345555
 C         2.016716        -1.970581         0.653698
 C         1.906429        -2.712360         2.010548
 C         2.386552        -1.648165         3.005772
 O         2.147509        -0.296537         2.775995
 C         2.348748         0.127664         1.424655
 H        -0.611046        -0.297913         1.402460
 H        -0.153153         0.896606         0.036731
 H        -0.633265        -0.890570        -0.263587
 H         4.193616        -0.916303         0.104329
 H         1.779263        -2.573704        -0.224468
 H         0.755773        -2.884225         2.082975
 H         2.370720        -3.619280         1.946960
 H         2.088373        -1.965353         4.086335
 H         3.586778        -1.778874         3.079739
 H         2.437510         1.257364         1.288614
