19
Iteration:  2760
 C        -0.123249        -0.166935         0.348747
 C         1.310187        -0.471023         0.474411
 O         2.201983        -0.182050        -0.662555
 C         3.137671        -0.882884         0.356510
 C         1.962296        -1.901098         0.628375
 C         1.887956        -2.645501         2.038147
 C         2.481665        -1.692104         3.058699
 O         2.123417        -0.290662         2.819532
 C         2.424142         0.053144         1.445726
 H        -0.861728        -0.813132         0.830567
 H        -0.315727         0.869292         0.516413
 H        -0.561473        -0.452363        -0.599290
 H         4.244729        -0.887720         0.145606
 H         1.698934        -2.735655        -0.064948
 H         0.812699        -2.796520         2.120631
 H         2.444522        -3.697730         1.969441
 H         2.009957        -1.759237         4.050008
 H         3.528628        -2.000906         3.056418
 H         2.755745         1.108013         1.441272
