19
Iteration:  3161
 C        -0.157049        -0.337385         0.251075
 C         1.303243        -0.472521         0.574685
 O         2.241064        -0.157424        -0.661191
 C         3.091976        -0.834267         0.361953
 C         1.957216        -1.911957         0.587418
 C         1.705994        -2.536796         1.983578
 C         2.484210        -1.722477         2.995440
 O         2.325921        -0.278467         2.885973
 C         2.372716         0.109128         1.533237
 H        -0.822431        -0.777997         0.955430
 H        -0.517992         0.625297        -0.056583
 H        -0.347365        -1.021286        -0.577094
 H         4.165142        -0.972485         0.361939
 H         1.707449        -2.525263        -0.253812
 H         0.727437        -2.666505         2.367842
 H         2.156543        -3.627831         2.024077
 H         2.316172        -1.977197         4.026350
 H         3.738601        -1.960370         2.851731
 H         2.639253         1.151711         1.443402
