19
Iteration:  2901charge 0 multiplicity 1
 C        -0.153949        -0.098191         0.337490
 C         1.310888        -0.472410         0.434547
 O         2.226668        -0.217241        -0.697383
 C         3.102000        -0.864415         0.345053
 C         2.024755        -1.901077         0.621833
 C         1.909469        -2.624907         2.009087
 C         2.496020        -1.702359         3.037895
 O         2.107899        -0.355997         2.900115
 C         2.308323         0.060273         1.452349
 H        -0.543982        -0.381766         1.361398
 H        -0.073935         0.942914         0.083056
 H        -0.659140        -0.888100        -0.243919
 H         4.219459        -0.924088         0.242507
 H         1.995880        -2.669652        -0.252577
 H         0.841163        -2.787284         2.211951
 H         2.460462        -3.542140         2.207712
 H         2.172623        -1.888027         4.081194
 H         3.529659        -1.780703         2.961693
 H         2.659537         1.117479         1.425703
