19
Iteration:  3982charge 0 multiplicity 1
 C        -0.112773        -0.000574         0.312780
 C         1.200067        -0.582537         0.464047
 O         2.290449        -0.250403        -0.681344
 C         3.014614        -0.976612         0.416159
 C         1.946415        -2.011232         0.562378
 C         1.978087        -2.591896         2.132457
 C         2.705965        -1.545122         3.072074
 O         2.070872        -0.292670         2.796103
 C         2.251075         0.012101         1.419228
 H        -0.550890         0.070857         1.282609
 H        -0.244277         0.872653        -0.329755
 H        -0.822046        -0.596310        -0.279320
 H         4.138710        -1.204223         0.361207
 H         1.838206        -2.875169        -0.150334
 H         0.945970        -2.668522         2.426684
 H         2.359957        -3.601405         2.039616
 H         2.386780        -1.716970         4.119102
 H         3.934290        -1.487186         3.107076
 H         2.357842         1.031729         1.219659
