19
Iteration:  4706charge 0 multiplicity 1
 C        -0.152713        -0.045633         0.285858
 C         1.247930        -0.573245         0.560000
 O         2.230595        -0.208411        -0.619466
 C         3.092395        -0.952926         0.398835
 C         1.904042        -1.954156         0.610810
 C         2.013390        -2.626651         1.996147
 C         2.525897        -1.627736         3.059084
 O         2.140598        -0.282730         2.740353
 C         2.329355         0.012351         1.484201
 H        -0.567438         0.374564         1.217390
 H        -0.124755         0.806780        -0.375943
 H        -0.874014        -0.728685        -0.126629
 H         4.201150        -1.187001         0.179528
 H         1.693008        -2.799567        -0.016623
 H         1.063302        -2.950160         2.367716
 H         2.745640        -3.474137         1.808969
 H         2.139327        -1.618214         4.091575
 H         3.689956        -1.667350         3.047319
 H         2.497578         1.104333         1.317548
