19
Iteration:  4672charge 0 multiplicity 1
 C        -0.163198        -0.038343         0.457539
 C         1.256956        -0.538393         0.417062
 O         2.252451        -0.335737        -0.802502
 C         3.123093        -0.875554         0.391480
 C         2.016260        -1.910639         0.668766
 C         1.943791        -2.659701         1.998742
 C         2.513646        -1.657448         3.084593
 O         2.097727        -0.271290         2.772579
 C         2.332143         0.081972         1.495623
 H        -0.464649         0.010365         1.561692
 H        -0.147093         0.954633         0.053041
 H        -0.863699        -0.792447         0.041186
 H         4.305056        -0.883294         0.107169
 H         2.004388        -2.550054        -0.240925
 H         0.895564        -2.840173         2.169161
 H         2.272060        -3.750405         2.222372
 H         2.056814        -1.723152         4.081762
 H         3.674683        -1.916145         3.263245
 H         2.320726         1.166295         1.229563
