19
Iteration:  2727
 C        -0.197692        -0.054762         0.360861
 C         1.289455        -0.620143         0.427086
 O         2.230959        -0.266688        -0.667420
 C         3.122808        -0.817895         0.417914
 C         2.018111        -1.943665         0.620352
 C         1.899811        -2.620928         1.972093
 C         2.455776        -1.674984         3.076572
 O         2.268538        -0.279566         2.839051
 C         2.233319         0.034741         1.432772
 H        -0.676778        -0.304865         1.270157
 H        -0.033899         0.994592         0.453980
 H        -0.460469        -0.179661        -0.621131
 H         4.220330        -0.666580         0.396407
 H         2.029782        -2.644030        -0.240576
 H         0.848531        -2.814509         2.024119
 H         2.370767        -3.704677         1.890538
 H         1.871669        -1.990563         3.917547
 H         3.460345        -1.889528         3.356607
 H         2.449717         1.096775         1.297829
