19
Iteration:  4740charge 0 multiplicity 1
 C        -0.239678        -0.154171         0.117380
 C         1.279929        -0.482831         0.434341
 O         2.195826        -0.270065        -0.678915
 C         3.058322        -0.826237         0.454122
 C         1.908758        -1.896709         0.669387
 C         1.861926        -2.527309         2.071195
 C         2.585767        -1.722252         3.077484
 O         2.358600        -0.332409         2.837275
 C         2.298610         0.060980         1.540887
 H        -0.676096        -0.144060         1.081469
 H        -0.355006         0.799501        -0.398761
 H        -0.694756        -0.957117        -0.406718
 H         4.109080        -1.107709         0.324297
 H         1.784523        -2.611668        -0.136927
 H         0.835759        -2.885213         2.268327
 H         2.325318        -3.472158         1.758811
 H         2.446650        -1.982137         4.163835
 H         3.731332        -1.763631         2.966455
 H         2.511014         1.136785         1.654390
