19
Iteration:  3939
 C        -0.213953        -0.177598         0.205353
 C         1.272630        -0.492378         0.569050
 O         2.213846        -0.382141        -0.650235
 C         2.995746        -0.868324         0.456012
 C         1.946025        -1.910890         0.695247
 C         1.890099        -2.592143         1.978688
 C         2.583088        -1.637248         3.060555
 O         2.291431        -0.227127         2.810921
 C         2.331469         0.095846         1.435630
 H        -0.966430        -0.507537         0.851622
 H        -0.239723         0.876296        -0.092276
 H        -0.315364        -0.529657        -0.828408
 H         4.058755        -1.112302         0.154209
 H         1.810178        -2.487367        -0.253758
 H         0.919552        -2.811182         2.418698
 H         2.271235        -3.627822         2.142735
 H         2.307185        -1.782185         4.104069
 H         3.763574        -1.611575         2.917680
 H         2.575701         1.121363         1.397830
