19
Iteration:  4498charge 0 multiplicity 1
 C        -0.129426        -0.088143         0.424214
 C         1.278383        -0.512609         0.423048
 O         2.185722        -0.354480        -0.735635
 C         3.127730        -0.938459         0.472537
 C         1.985161        -1.969439         0.699846
 C         1.954975        -2.578639         2.018509
 C         2.455250        -1.624062         3.070748
 O         2.171125        -0.236213         2.744599
 C         2.342618         0.095793         1.410159
 H        -0.428333         0.026517         1.488491
 H        -0.279924         0.765914        -0.195557
 H        -0.813843        -0.842345         0.013465
 H         4.251209        -0.948290         0.130474
 H         1.835614        -2.512798        -0.231950
 H         0.858833        -2.913824         2.119489
 H         2.660874        -3.453871         1.975863
 H         1.973116        -1.980219         3.954546
 H         3.501704        -1.778853         3.070302
 H         2.484045         1.262081         1.483234
