19
Iteration:  2994charge 0 multiplicity 1
 C        -0.118781        -0.303063         0.133840
 C         1.272752        -0.488294         0.445145
 O         2.197994        -0.101728        -0.562382
 C         3.052126        -0.807856         0.388125
 C         1.937498        -1.868140         0.642251
 C         1.749359        -2.530953         2.104657
 C         2.598456        -1.771606         3.110197
 O         2.353464        -0.376065         2.815606
 C         2.300126         0.040956         1.424139
 H        -0.696256        -0.762448         0.881284
 H        -0.255362         0.779564         0.099647
 H        -0.460218        -0.872801        -0.727043
 H         4.098761        -0.894068         0.124986
 H         1.780675        -2.480388        -0.232634
 H         0.706696        -2.378070         2.410397
 H         1.983087        -3.679638         1.850463
 H         2.341239        -1.814972         4.205828
 H         3.589544        -1.851942         3.025500
 H         2.525131         1.138238         1.518456
