19
Iteration:  3070charge 0 multiplicity 1
 C        -0.191641        -0.125969         0.306307
 C         1.317994        -0.476779         0.523058
 O         2.238731        -0.196405        -0.640146
 C         3.113534        -0.875224         0.312088
 C         1.988732        -1.895946         0.612792
 C         1.953213        -2.588336         2.041206
 C         2.513351        -1.717791         3.080683
 O         2.049506        -0.345611         2.786986
 C         2.400656         0.019511         1.466285
 H        -0.584457        -0.247246         1.305928
 H        -0.348353         0.918026         0.007943
 H        -0.717635        -0.742896        -0.467291
 H         4.133123        -1.158188         0.066658
 H         1.684370        -2.646940        -0.123728
 H         0.947942        -2.956966         2.070899
 H         2.378066        -3.637311         1.915662
 H         2.305773        -1.645868         4.218360
 H         3.697420        -1.628694         3.174603
 H         2.669160         1.133684         1.555652
