19
Iteration:  2447
 C        -0.144829        -0.114403         0.227891
 C         1.290953        -0.543880         0.495585
 O         2.193186        -0.240757        -0.666145
 C         3.097831        -0.806165         0.398771
 C         1.994433        -1.946691         0.670714
 C         1.809484        -2.513284         2.026392
 C         2.539547        -1.761685         3.025279
 O         2.281569        -0.362174         2.864864
 C         2.296795         0.062523         1.468721
 H        -0.638564        -0.131519         1.206512
 H        -0.152374         0.869330        -0.190817
 H        -0.570098        -0.778439        -0.469517
 H         4.171327        -0.721505         0.185121
 H         1.778373        -2.476971        -0.217927
 H         0.684324        -2.471781         2.169541
 H         2.090413        -3.563088         2.102167
 H         2.266888        -2.142738         3.985018
 H         3.658469        -1.775975         2.946838
 H         2.437715         1.106913         1.530599
