19
Iteration:  1103
 C        -0.133590        -0.198832         0.306112
 C         1.259645        -0.677662         0.361727
 O         2.215356        -0.284398        -0.698008
 C         3.012019        -0.797450         0.464778
 C         2.028281        -1.904273         0.615332
 C         1.743146        -2.472040         2.000074
 C         2.474934        -1.726730         3.119433
 O         2.390359        -0.281778         2.849931
 C         2.330490         0.097185         1.478163
 H        -0.285143         0.101463         1.374712
 H        -0.088120         0.801456        -0.035586
 H        -0.916360        -0.735710        -0.198095
 H         4.076119        -0.868311         0.138063
 H         2.023021        -2.586098        -0.273092
 H         0.604406        -2.384713         2.107618
 H         2.023166        -3.554192         2.024734
 H         2.220887        -1.951448         4.110743
 H         3.687314        -1.992965         3.053511
 H         2.319682         1.171201         1.303254
