19
Iteration:  2468charge 0 multiplicity 1
 C        -0.218456        -0.252477         0.256734
 C         1.258019        -0.509860         0.432385
 O         2.311223        -0.114810        -0.518090
 C         3.035319        -0.931337         0.489370
 C         1.883640        -1.915592         0.542024
 C         1.760045        -2.628289         1.974752
 C         2.551496        -1.676082         2.997588
 O         2.329942        -0.235916         2.869284
 C         2.406250         0.045830         1.448122
 H        -0.821894        -0.180906         1.180370
 H        -0.382085         0.649074        -0.312986
 H        -0.589661        -1.028760        -0.370009
 H         4.075587        -1.316568         0.352731
 H         1.807133        -2.512644        -0.349891
 H         0.557817        -2.711448         2.221170
 H         2.250239        -3.550838         1.876398
 H         2.373845        -1.913300         4.019752
 H         3.656475        -1.682937         2.873381
 H         2.634905         1.069368         1.390406
