19
Iteration:  4007charge 0 multiplicity 1
 C        -0.119364        -0.093529         0.317084
 C         1.251671        -0.567394         0.474508
 O         2.197773        -0.320202        -0.662309
 C         3.097223        -0.918939         0.384260
 C         2.001627        -1.949666         0.668453
 C         1.887805        -2.565088         2.077739
 C         2.529049        -1.596302         3.019219
 O         2.163935        -0.243806         2.802390
 C         2.323755         0.040407         1.472024
 H        -0.505457         0.151897         1.284938
 H        -0.196320         0.699172        -0.390966
 H        -0.863024        -0.684312        -0.165646
 H         4.093464        -0.928779        -0.036758
 H         2.011675        -2.745174        -0.110023
 H         0.850887        -2.966588         2.167617
 H         2.538161        -3.494989         2.002807
 H         2.282458        -1.795778         4.046161
 H         3.727975        -1.765160         2.865810
 H         2.537830         1.146956         1.323571
