19
Iteration:  3972
 C        -0.142453        -0.040959         0.266586
 C         1.266435        -0.524727         0.384584
 O         2.298981        -0.258460        -0.704703
 C         2.981146        -0.956293         0.449613
 C         1.883238        -1.994064         0.720156
 C         1.975937        -2.602988         2.125821
 C         2.675001        -1.581966         3.084243
 O         2.118297        -0.302760         2.758199
 C         2.194098         0.020981         1.430380
 H        -0.518444         0.043837         1.246925
 H        -0.033865         1.010156         0.007392
 H        -0.693661        -0.781022        -0.273426
 H         4.052683        -1.106614         0.135506
 H         1.948897        -2.567400        -0.219648
 H         0.942675        -2.806551         2.457314
 H         2.630548        -3.501860         2.105206
 H         2.550811        -1.781909         4.143865
 H         3.890137        -1.635558         2.812286
 H         2.474556         1.051504         1.373367
