19
Iteration:  4684charge 0 multiplicity 1
 C        -0.103991        -0.023134         0.419808
 C         1.320393        -0.549929         0.439484
 O         2.196540        -0.324663        -0.743915
 C         3.081264        -0.857886         0.391164
 C         2.016177        -2.014356         0.598986
 C         1.973253        -2.648673         2.023676
 C         2.487470        -1.670779         3.084629
 O         2.078469        -0.255193         2.854816
 C         2.305404         0.105103         1.395026
 H        -0.295123         0.246614         1.469951
 H        -0.163133         0.883273        -0.164154
 H        -0.901025        -0.630661         0.028350
 H         4.218700        -1.011333         0.228231
 H         1.770980        -2.715858        -0.194311
 H         0.929951        -2.886720         2.294358
 H         2.630461        -3.560848         1.905170
 H         2.114282        -1.975078         4.089088
 H         3.652606        -1.543056         3.064436
 H         2.606772         1.171402         1.450656
