19
Iteration:  4380
 C        -0.146609        -0.148029         0.200338
 C         1.228596        -0.630514         0.465227
 O         2.258573        -0.217978        -0.700849
 C         3.032628        -0.941723         0.398512
 C         1.941682        -1.937034         0.675982
 C         1.787112        -2.548092         2.148029
 C         2.673798        -1.581726         3.062035
 O         2.283685        -0.282791         2.880148
 C         2.297050         0.013033         1.419654
 H        -1.023934        -0.663262         0.735911
 H        -0.369847         0.960906         0.275309
 H        -0.446447        -0.256062        -0.892694
 H         3.984705        -1.181225         0.082157
 H         1.847565        -2.536622        -0.242394
 H         0.823163        -2.373143         2.619875
 H         2.193925        -3.524331         2.288476
 H         2.487033        -1.906178         4.108781
 H         3.774412        -1.543255         2.764403
 H         2.218023         1.109103         1.143615
