19
Iteration:  2770charge 0 multiplicity 1
 C        -0.206109        -0.207769         0.325577
 C         1.302239        -0.469688         0.477838
 O         2.287106        -0.158746        -0.665602
 C         3.126525        -0.907714         0.439459
 C         1.897075        -1.917027         0.605096
 C         1.898160        -2.560887         1.962204
 C         2.485642        -1.740327         3.091715
 O         2.176890        -0.267697         2.805993
 C         2.404317         0.014511         1.448060
 H        -0.647267        -0.833503         1.132973
 H        -0.604151         0.779356         0.498259
 H        -0.444940        -0.442845        -0.745773
 H         4.175671        -1.144851         0.222991
 H         1.455123        -2.436564        -0.289757
 H         0.858017        -2.769902         2.367572
 H         2.400165        -3.636626         1.991414
 H         2.238103        -1.934013         4.138167
 H         3.633711        -1.612473         3.141256
 H         2.551211         1.114120         1.280223
