19
Iteration:  3313charge 0 multiplicity 1
 C        -0.081328        -0.233488         0.398341
 C         1.300354        -0.568425         0.607272
 O         2.237577        -0.226626        -0.695256
 C         3.130229        -0.748061         0.321020
 C         2.054876        -1.891905         0.645510
 C         1.782867        -2.586711         1.957189
 C         2.414834        -1.722682         3.041302
 O         2.202392        -0.293428         2.801669
 C         2.321048         0.048425         1.429873
 H        -0.601553        -0.188319         1.382498
 H        -0.149728         0.834955         0.084469
 H        -0.671762        -0.871230        -0.339409
 H         4.199596        -0.727357         0.034993
 H         1.930360        -2.552222        -0.194555
 H         0.684411        -2.811304         2.122667
 H         2.397230        -3.492680         2.127729
 H         2.010044        -1.838989         4.104731
 H         3.619639        -1.947720         2.901091
 H         2.399677         1.138048         1.449993
