19
Iteration:  2896
 C        -0.115783        -0.133942         0.346499
 C         1.289434        -0.483130         0.465559
 O         2.243803        -0.220785        -0.675173
 C         3.090864        -0.858822         0.376978
 C         1.970879        -1.919150         0.614880
 C         1.912797        -2.621144         1.969019
 C         2.497881        -1.718599         3.050554
 O         2.128203        -0.328177         2.854281
 C         2.303099         0.067065         1.466511
 H        -0.591890        -0.229458         1.315440
 H        -0.137593         0.943198        -0.008539
 H        -0.593690        -0.891462        -0.318106
 H         4.154987        -0.951612         0.304488
 H         1.904707        -2.546801        -0.212275
 H         0.831395        -2.822037         2.061972
 H         2.530802        -3.542981         2.160338
 H         2.189828        -1.762552         4.097916
 H         3.678162        -1.731046         2.925957
 H         2.616684         1.118235         1.509922
