19
Iteration:  4716charge 0 multiplicity 1
 C        -0.237738        -0.060278         0.239764
 C         1.274519        -0.521257         0.486161
 O         2.263140        -0.185857        -0.622036
 C         3.026180        -0.928446         0.407546
 C         1.890806        -2.015845         0.634582
 C         2.000028        -2.666144         2.051192
 C         2.586402        -1.656544         3.082211
 O         2.196735        -0.263955         2.834919
 C         2.329407         0.073612         1.381452
 H        -0.714241         0.258603         1.213564
 H        -0.074271         0.744514        -0.468919
 H        -0.866458        -0.840122        -0.226665
 H         4.165568        -1.194586         0.267278
 H         1.519708        -2.508577        -0.292564
 H         1.043046        -2.971079         2.311759
 H         2.574678        -3.662289         1.931377
 H         2.160126        -2.087242         4.001840
 H         3.682662        -1.581153         3.262760
 H         2.645970         1.128735         1.385076
