19
Iteration:   986
 C        -0.190718        -0.097416         0.228936
 C         1.223693        -0.613858         0.490480
 O         2.266191        -0.298589        -0.677621
 C         3.043230        -0.850967         0.399939
 C         1.963572        -1.940120         0.669164
 C         1.775700        -2.543279         2.046341
 C         2.570745        -1.661770         2.984544
 O         2.323731        -0.228338         2.883592
 C         2.348415         0.004661         1.487668
 H        -0.958295        -0.619098         0.901117
 H        -0.226963         0.940483         0.583071
 H        -0.342849        -0.253616        -0.869847
 H         4.070764        -0.915796        -0.072226
 H         1.744659        -2.572052        -0.167570
 H         0.782762        -2.542438         2.456741
 H         2.245117        -3.591074         2.100132
 H         2.314306        -1.911130         4.040785
 H         3.669687        -1.960183         2.881859
 H         2.381573         1.075996         1.353209
