19
Iteration:  2343
 C        -0.193571        -0.160891         0.295276
 C         1.297131        -0.579976         0.481335
 O         2.241370        -0.241066        -0.678086
 C         3.120803        -0.768548         0.438366
 C         1.950563        -1.892953         0.686158
 C         1.766901        -2.574848         2.020061
 C         2.518280        -1.770448         3.066232
 O         2.294395        -0.335721         2.811656
 C         2.381440         0.083080         1.391814
 H        -0.834905        -0.394547         1.176113
 H        -0.154822         0.958567         0.184401
 H        -0.776081        -0.659314        -0.555147
 H         4.221422        -0.713923         0.257143
 H         1.946416        -2.522783        -0.258593
 H         0.600813        -2.412382         2.045110
 H         2.061591        -3.600336         2.073423
 H         2.034550        -1.876191         4.080772
 H         3.571549        -1.994540         3.120569
 H         2.595946         1.203210         1.372748
