19
Iteration:  2957
 C        -0.231821        -0.226508         0.280062
 C         1.272342        -0.528452         0.453492
 O         2.271322        -0.223500        -0.582471
 C         3.096856        -0.858072         0.444216
 C         1.929969        -1.889855         0.557276
 C         1.835637        -2.686813         1.927813
 C         2.480638        -1.663221         3.039312
 O         2.289624        -0.207467         2.871713
 C         2.359186         0.114227         1.514248
 H        -0.725822        -0.724279         1.163948
 H        -0.473404         0.839371         0.350085
 H        -0.543893        -0.444643        -0.711415
 H         4.205539        -0.988958         0.259520
 H         1.940127        -2.726740        -0.221908
 H         0.840740        -3.042573         2.134161
 H         2.345376        -3.597687         1.856366
 H         2.356046        -1.927704         4.046165
 H         3.453148        -1.918203         2.873361
 H         2.645494         1.087639         1.215434
