19
Iteration:  2835charge 0 multiplicity 1
 C        -0.112154        -0.222120         0.142171
 C         1.289086        -0.571671         0.473079
 O         2.173786        -0.158466        -0.644441
 C         3.075239        -0.753132         0.383121
 C         1.975466        -1.880799         0.653249
 C         1.836997        -2.497789         2.073479
 C         2.573174        -1.770338         3.080729
 O         2.297204        -0.368477         2.862324
 C         2.312481         0.055254         1.497779
 H        -0.901188        -0.168490         0.981200
 H        -0.153725         0.785874        -0.302323
 H        -0.843743        -0.898218        -0.469067
 H         4.152052        -0.817809         0.155403
 H         1.698591        -2.675331        -0.181427
 H         0.705294        -2.390510         2.231614
 H         1.996850        -3.647516         2.018425
 H         2.201552        -2.337910         3.966725
 H         3.725177        -2.131534         3.039005
 H         2.418026         1.192173         1.619941
