19
Iteration:  2357charge 0 multiplicity 1
 C        -0.167871        -0.184616         0.301943
 C         1.270624        -0.417052         0.419763
 O         2.239315        -0.206565        -0.648186
 C         3.069411        -0.897868         0.382480
 C         1.997082        -1.865559         0.623353
 C         1.823264        -2.565219         2.033946
 C         2.480114        -1.708923         3.129092
 O         2.236545        -0.351150         2.764632
 C         2.411962         0.056352         1.476211
 H        -0.641597        -0.583715         1.190323
 H        -0.500191         0.868178         0.239120
 H        -0.480480        -0.637624        -0.615424
 H         4.141117        -1.298911         0.148148
 H         1.714093        -2.587608        -0.131080
 H         0.807815        -2.835111         2.439524
 H         2.199159        -3.519787         1.929882
 H         2.215551        -1.920026         4.175004
 H         3.582101        -1.924855         3.120562
 H         2.666943         1.150975         1.420697
