19
Iteration:  4636charge 0 multiplicity 1
 C        -0.126140        -0.313702         0.389191
 C         1.343708        -0.560232         0.429460
 O         2.229684        -0.179857        -0.647489
 C         3.066744        -0.902676         0.426055
 C         1.916796        -1.938644         0.607398
 C         1.745178        -2.601890         2.015523
 C         2.471676        -1.603709         3.024609
 O         2.328710        -0.156181         2.832169
 C         2.387342         0.014098         1.421995
 H        -0.622156        -0.695365         1.345517
 H        -0.410808         0.785891         0.290891
 H        -0.562635        -0.758624        -0.566321
 H         4.123654        -1.043545         0.052935
 H         1.775198        -2.526482        -0.344842
 H         0.697410        -2.641190         2.158227
 H         2.267763        -3.573469         2.132632
 H         2.037660        -1.828034         4.006379
 H         3.575153        -1.751278         3.050328
 H         2.457921         1.084094         1.334190
