19
Iteration:   761charge 0 multiplicity 1
 C        -0.202199        -0.297668         0.180489
 C         1.230460        -0.460126         0.508815
 O         2.281697        -0.188214        -0.592655
 C         3.068813        -0.976446         0.478135
 C         1.783731        -1.825754         0.671407
 C         1.801937        -2.452972         2.062053
 C         2.602147        -1.673652         3.007248
 O         2.379864        -0.316984         2.771500
 C         2.389190         0.018860         1.439039
 H        -0.833664        -0.946542         0.823805
 H        -0.446884         0.802884         0.264712
 H        -0.646117        -0.506023        -0.856762
 H         4.120285        -1.108986         0.448333
 H         1.441648        -2.524636        -0.145806
 H         0.804662        -2.537633         2.419368
 H         2.022640        -3.493210         1.954880
 H         2.229681        -1.914927         4.048490
 H         3.636197        -1.801114         3.006898
 H         2.936765         0.919422         1.195920
