19
Iteration:  4536
 C        -0.166120        -0.102616         0.232193
 C         1.270359        -0.532279         0.449837
 O         2.248327        -0.227272        -0.657728
 C         3.095848        -0.984802         0.365828
 C         1.884959        -1.921266         0.719772
 C         1.939856        -2.553902         2.124138
 C         2.591886        -1.598254         2.968397
 O         2.205857        -0.288816         2.852787
 C         2.234117         0.001549         1.420879
 H        -0.788321        -0.366109         1.116995
 H        -0.350559         1.026031         0.144325
 H        -0.504583        -0.676259        -0.685847
 H         4.111898        -1.171842         0.242086
 H         1.692486        -2.789861         0.066044
 H         0.920788        -2.710567         2.439418
 H         2.459866        -3.491950         2.173502
 H         2.492232        -1.801043         4.071951
 H         3.752812        -1.637864         2.803284
 H         2.663305         0.965293         1.318882
