19
Iteration:  1363charge 0 multiplicity 1
 C        -0.146471        -0.159653         0.259970
 C         1.367651        -0.383772         0.442477
 O         2.250121        -0.220002        -0.673326
 C         3.035616        -1.026642         0.434920
 C         1.744066        -1.922565         0.654588
 C         1.903802        -2.574896         2.094626
 C         2.592619        -1.620581         3.017604
 O         2.170214        -0.267110         2.845083
 C         2.408158         0.019233         1.438921
 H        -0.745713        -0.729022         0.994006
 H        -0.374557         0.912546         0.080733
 H        -0.441490        -0.785447        -0.659734
 H         4.058103        -1.184302         0.188671
 H         1.388137        -2.674285        -0.055792
 H         0.964787        -2.974169         2.441900
 H         2.601418        -3.352512         1.904560
 H         2.429086        -2.058643         4.056687
 H         3.803333        -1.630935         2.938609
 H         2.654268         1.092245         1.431329
