19
Iteration:  2330
 C        -0.118992        -0.135712         0.316468
 C         1.264956        -0.561854         0.473901
 O         2.258139        -0.282021        -0.667523
 C         3.105090        -0.746333         0.410420
 C         2.058046        -1.989538         0.619646
 C         1.686522        -2.557914         1.992278
 C         2.470705        -1.711180         2.984158
 O         2.401604        -0.287601         2.843193
 C         2.219253         0.073210         1.525248
 H        -0.645492        -0.247262         1.312648
 H        -0.159531         0.944042        -0.035790
 H        -0.557527        -0.755723        -0.548165
 H         4.143808        -0.730606         0.187127
 H         1.940188        -2.721050        -0.225318
 H         0.617934        -2.568600         2.398723
 H         2.000233        -3.688441         2.068541
 H         2.127358        -1.968527         4.007390
 H         3.527415        -1.971958         2.879749
 H         2.162658         1.161953         1.464051
