19
Iteration:  1734charge 0 multiplicity 1
 C        -0.120231        -0.007578         0.211024
 C         1.258384        -0.578949         0.467596
 O         2.219110        -0.300291        -0.689960
 C         3.006400        -0.805248         0.334314
 C         2.033043        -1.891937         0.700690
 C         1.828907        -2.641870         2.070826
 C         2.620983        -1.762011         3.100722
 O         2.216016        -0.309960         2.862092
 C         2.288606         0.088756         1.442158
 H        -0.662669        -0.232208         1.148188
 H        -0.062620         1.107672         0.097843
 H        -0.717032        -0.565323        -0.582282
 H         4.078135        -0.923660        -0.013872
 H         1.955085        -2.638018        -0.061229
 H         0.755276        -2.584047         2.359599
 H         2.353851        -3.653472         2.221054
 H         2.311393        -2.025117         4.117972
 H         3.671673        -1.954076         3.018030
 H         2.292565         1.203775         1.197709
