19
Iteration:  4196charge 0 multiplicity 1
 C        -0.222272        -0.139103         0.222106
 C         1.220211        -0.499053         0.374734
 O         2.262120        -0.377836        -0.708521
 C         3.037171        -0.853160         0.403446
 C         1.902701        -1.922783         0.699378
 C         1.875431        -2.649978         2.074115
 C         2.621251        -1.644364         3.138153
 O         2.327238        -0.239770         2.839716
 C         2.270691         0.129606         1.464538
 H        -0.538155         0.069553         1.220515
 H        -0.089698         0.755867        -0.320028
 H        -0.894035        -0.700796        -0.395380
 H         4.074136        -0.921842         0.211112
 H         1.717651        -2.608096        -0.117377
 H         0.877115        -3.009282         2.299555
 H         2.562735        -3.523285         2.130427
 H         2.091472        -1.830673         4.081934
 H         3.715094        -1.799642         3.094584
 H         2.524360         1.182113         1.361927
