19
Iteration:  4217
 C        -0.220752        -0.217852         0.280031
 C         1.294729        -0.566106         0.511643
 O         2.190905        -0.222084        -0.577186
 C         3.075565        -0.938861         0.413704
 C         1.956044        -1.962016         0.626552
 C         1.809070        -2.523122         2.050484
 C         2.487847        -1.597172         3.066749
 O         2.338989        -0.215398         2.778597
 C         2.392821         0.042936         1.359956
 H        -0.646919         0.042984         1.255010
 H        -0.275713         0.470108        -0.541753
 H        -0.640377        -1.113702        -0.211582
 H         4.097348        -1.113426         0.410174
 H         2.003727        -2.681598        -0.170299
 H         0.727561        -2.577905         2.161343
 H         2.354771        -3.553142         2.161090
 H         2.092200        -1.896293         4.058870
 H         3.565267        -1.745714         2.948475
 H         2.632588         1.108333         1.183952
