19
Iteration:  1670charge 0 multiplicity 1
 C        -0.167773        -0.211807         0.311798
 C         1.267119        -0.441308         0.516018
 O         2.291909        -0.215905        -0.648270
 C         3.101208        -0.945781         0.350355
 C         1.826902        -1.870929         0.604599
 C         1.870248        -2.566733         2.025122
 C         2.536107        -1.661767         3.062205
 O         2.154666        -0.247077         2.830880
 C         2.451027         0.008415         1.439548
 H        -0.684069        -0.428552         1.219544
 H        -0.476415         0.761671         0.007222
 H        -0.494957        -1.106962        -0.237064
 H         4.133644        -1.434193         0.263857
 H         1.643635        -2.447024        -0.316576
 H         0.800797        -2.892115         2.330618
 H         2.510522        -3.473818         1.722033
 H         2.211474        -1.824577         4.051974
 H         3.685358        -1.752412         3.096891
 H         2.836386         1.081067         1.408943
