19
Iteration:  2044
 C        -0.091778        -0.055286         0.363118
 C         1.316824        -0.568721         0.449031
 O         2.166655        -0.247517        -0.695901
 C         3.130639        -0.913775         0.419345
 C         1.997533        -1.906567         0.707638
 C         1.855782        -2.636473         1.977724
 C         2.521370        -1.739145         3.051142
 O         2.156569        -0.291274         2.812018
 C         2.328700         0.098385         1.419532
 H        -0.785336        -0.354761         1.226050
 H        -0.069266         1.086429         0.251456
 H        -0.624670        -0.386715        -0.555242
 H         4.218542        -1.036469         0.218615
 H         1.845233        -2.654647        -0.131255
 H         0.715862        -2.721522         2.412661
 H         2.410035        -3.632048         2.043043
 H         2.149098        -1.712300         4.074384
 H         3.618596        -1.674389         2.928217
 H         2.570106         1.150261         1.206897
