19
Iteration:  1684
 C        -0.154021        -0.143163         0.331099
 C         1.319251        -0.495138         0.527951
 O         2.333724        -0.182848        -0.653058
 C         3.006924        -0.974638         0.384806
 C         1.878769        -1.966611         0.653775
 C         1.916044        -2.654388         2.009486
 C         2.465582        -1.588047         3.005862
 O         2.207675        -0.271230         2.800029
 C         2.346663         0.050017         1.467354
 H        -0.780121        -0.138888         1.288504
 H        -0.232134         0.888368        -0.115183
 H        -0.597064        -0.759048        -0.478801
 H         4.069610        -0.963980         0.047180
 H         1.417597        -2.675590        -0.114681
 H         0.946150        -3.085059         2.329007
 H         2.637568        -3.419602         2.193066
 H         2.260498        -1.915639         4.041406
 H         3.644714        -1.710298         2.814438
 H         2.553021         1.099304         1.265895
