19
Iteration:  4654
 C        -0.159682        -0.171314         0.456739
 C         1.274293        -0.542399         0.456624
 O         2.276308        -0.294798        -0.675220
 C         3.123361        -0.810467         0.392916
 C         2.022198        -1.964614         0.635057
 C         1.846049        -2.528462         2.019173
 C         2.429395        -1.669093         3.072878
 O         2.217372        -0.315684         2.736823
 C         2.326068         0.111635         1.338944
 H        -0.520441        -0.265518         1.449736
 H        -0.325880         0.910803         0.300235
 H        -0.813908        -0.725578        -0.179528
 H         4.157276        -0.953546         0.338957
 H         1.784793        -2.758397        -0.052983
 H         0.777536        -2.770068         2.447612
 H         2.338838        -3.470805         1.902961
 H         2.118650        -1.823911         4.126695
 H         3.503652        -1.858883         3.068430
 H         2.674072         1.167642         1.319128
