19
Iteration:  1965charge 0 multiplicity 1
 C        -0.177542        -0.329158         0.239800
 C         1.299355        -0.454480         0.558604
 O         2.265299        -0.218662        -0.653728
 C         3.057511        -0.924038         0.381254
 C         1.864205        -1.807732         0.664783
 C         1.768698        -2.517754         1.970199
 C         2.494332        -1.725709         3.043939
 O         2.328689        -0.280163         2.875142
 C         2.471027         0.092191         1.461035
 H        -0.977612        -0.551567         1.008265
 H        -0.441369         0.723018         0.007031
 H        -0.439118        -1.050640        -0.616941
 H         4.071281        -1.220839        -0.039504
 H         1.486606        -2.351165        -0.166790
 H         0.691387        -2.525271         2.359363
 H         2.250485        -3.426710         1.995227
 H         2.249477        -1.993280         4.013368
 H         3.572053        -1.976655         3.002605
 H         2.641231         1.148331         1.250073
