19
Iteration:  2647charge 0 multiplicity 1
 C        -0.168666        -0.223407         0.203823
 C         1.244647        -0.574758         0.452919
 O         2.343799        -0.170080        -0.631602
 C         3.034609        -0.775966         0.485297
 C         1.918283        -1.922181         0.616194
 C         1.730504        -2.500197         2.049195
 C         2.607567        -1.812997         2.998906
 O         2.365911        -0.334813         2.834330
 C         2.229244         0.087446         1.514993
 H        -0.648985        -0.106769         1.127750
 H        -0.106080         0.698182        -0.355817
 H        -0.753944        -1.014428        -0.259292
 H         4.095971        -0.905173         0.441911
 H         1.846119        -2.503464        -0.330438
 H         0.594863        -2.456020         2.221496
 H         2.118718        -3.559651         2.040200
 H         2.325838        -1.839972         4.034975
 H         3.662474        -1.967713         2.849690
 H         2.294123         1.186492         1.318384
