19
Iteration:  4374charge 0 multiplicity 1
 C        -0.148069        -0.105725         0.154482
 C         1.219994        -0.583096         0.494368
 O         2.252317        -0.292933        -0.668694
 C         2.996328        -0.902707         0.445912
 C         1.914727        -1.941856         0.673053
 C         1.875577        -2.526758         2.150350
 C         2.691468        -1.564465         3.023739
 O         2.245001        -0.278955         2.834443
 C         2.292300        -0.014327         1.451606
 H        -0.884839        -0.567371         0.770213
 H        -0.322241         0.909183         0.541723
 H        -0.295978        -0.279166        -0.890529
 H         4.065442        -1.241292         0.106452
 H         1.805326        -2.573200        -0.228059
 H         0.778826        -2.434443         2.390717
 H         2.164455        -3.688152         2.037390
 H         2.595675        -1.809604         4.094309
 H         3.760700        -1.717422         2.847702
 H         2.200100         1.005831         1.145810
