19
Iteration:  4025
 C        -0.129615        -0.221787         0.337052
 C         1.304868        -0.501213         0.466707
 O         2.218101        -0.305165        -0.723439
 C         3.071024        -0.795790         0.446363
 C         1.887253        -1.960968         0.715427
 C         1.872877        -2.660564         2.040636
 C         2.478989        -1.678052         3.111479
 O         2.309732        -0.226680         2.767261
 C         2.329385         0.149736         1.355810
 H        -0.577565        -0.047517         1.326311
 H        -0.249296         0.687190        -0.363620
 H        -0.642520        -1.090057        -0.210950
 H         4.216824        -0.953219         0.340025
 H         1.673611        -2.295444        -0.310587
 H         0.823363        -2.655408         2.269018
 H         2.386967        -3.595484         2.113668
 H         2.103504        -1.953318         4.120541
 H         3.500274        -1.955329         3.226998
 H         2.476192         1.181280         1.286865
