19
Iteration:  4139
 C        -0.147764        -0.075356         0.263298
 C         1.283856        -0.572720         0.509472
 O         2.258849        -0.248054        -0.678342
 C         3.030728        -0.991932         0.416388
 C         1.889002        -1.991573         0.697226
 C         1.898458        -2.585050         2.105273
 C         2.654673        -1.554817         2.992748
 O         2.138229        -0.195458         2.804761
 C         2.283076        -0.025805         1.405962
 H        -0.949542        -0.631881         0.809246
 H        -0.209255         0.944970         0.582294
 H        -0.242158        -0.285698        -0.790728
 H         4.083410        -1.178986         0.260714
 H         1.633255        -2.767392        -0.029493
 H         0.896439        -2.925325         2.302971
 H         2.742373        -3.362503         2.135593
 H         2.602505        -1.869879         4.025537
 H         3.754838        -1.554133         2.962717
 H         2.554492         1.083981         1.218625
