19
Iteration:  2494
 C        -0.192534        -0.306474         0.283796
 C         1.261314        -0.429617         0.461094
 O         2.383852        -0.180700        -0.638963
 C         3.024417        -0.830770         0.389284
 C         1.863440        -1.855010         0.597082
 C         1.780150        -2.534537         2.000325
 C         2.535760        -1.758641         3.031811
 O         2.318880        -0.326284         2.857381
 C         2.353954         0.062108         1.496991
 H        -0.629202        -0.314673         1.268000
 H        -0.491812         0.649117        -0.186638
 H        -0.541782        -1.109791        -0.428524
 H         4.036981        -1.128631         0.310607
 H         1.565309        -2.603675        -0.210968
 H         0.744896        -2.595617         2.252081
 H         2.162346        -3.623735         1.737819
 H         2.049151        -1.902999         4.067356
 H         3.661422        -1.780151         3.233202
 H         2.621332         1.151182         1.523124
