19
Iteration:  2784
 C        -0.186049        -0.253139         0.315922
 C         1.258980        -0.461653         0.436988
 O         2.383725        -0.190265        -0.590835
 C         2.989762        -0.933436         0.424716
 C         1.877785        -1.864505         0.570542
 C         1.824932        -2.547397         1.979071
 C         2.578742        -1.620418         3.022872
 O         2.255418        -0.308130         2.851684
 C         2.312007         0.059108         1.470818
 H        -0.767202        -0.933153         0.983182
 H        -0.435936         0.798797         0.438647
 H        -0.628564        -0.691342        -0.551428
 H         4.117489        -1.159438         0.296439
 H         1.938692        -2.636619        -0.206989
 H         0.816592        -2.824128         2.169920
 H         2.470591        -3.493109         1.805121
 H         2.049052        -1.930763         3.974705
 H         3.590756        -1.962319         3.005325
 H         2.683134         1.061400         1.447730
