19
Iteration:  4166charge 0 multiplicity 1
 C        -0.178102        -0.003596         0.178855
 C         1.264615        -0.510603         0.476401
 O         2.159267        -0.361798        -0.656857
 C         3.029246        -0.946778         0.393812
 C         1.959807        -1.980199         0.718024
 C         1.987884        -2.613295         2.123959
 C         2.668540        -1.581240         3.051180
 O         2.158584        -0.283550         2.768428
 C         2.274336         0.041699         1.461071
 H        -0.882448        -0.166225         0.974597
 H         0.047424         1.093682         0.095693
 H        -0.482148        -0.352040        -0.820258
 H         4.131497        -0.998708         0.160637
 H         1.681163        -2.703019        -0.071655
 H         0.920575        -2.797816         2.359768
 H         2.615656        -3.452227         2.154303
 H         2.363583        -1.848101         4.125359
 H         3.784430        -1.590114         3.197813
 H         2.582246         1.049711         1.382775
