19
Iteration:  4533charge 0 multiplicity 1
 C        -0.158375        -0.095711         0.249057
 C         1.263028        -0.532387         0.459045
 O         2.267865        -0.236786        -0.667606
 C         3.103395        -0.977969         0.358193
 C         1.855605        -1.925013         0.718105
 C         1.961894        -2.557532         2.136707
 C         2.597527        -1.592869         2.979225
 O         2.190217        -0.292105         2.830693
 C         2.241775         0.013457         1.418551
 H        -0.843015        -0.368964         1.091945
 H        -0.355861         1.011859         0.120397
 H        -0.617845        -0.716446        -0.565669
 H         4.171780        -1.121003         0.176605
 H         1.726044        -2.769651         0.020142
 H         0.871405        -2.830552         2.382890
 H         2.403202        -3.516575         2.153189
 H         2.465198        -1.827180         4.063277
 H         3.674144        -1.641336         2.867819
 H         2.726850         1.048322         1.436650
