19
Iteration:  4701
 C        -0.092034        -0.037561         0.329650
 C         1.218675        -0.573194         0.512509
 O         2.223984        -0.242278        -0.608404
 C         3.074855        -0.949468         0.384038
 C         1.934263        -1.914015         0.646458
 C         2.006952        -2.584884         1.979319
 C         2.516154        -1.601968         3.046829
 O         2.117584        -0.300884         2.753383
 C         2.336323        -0.018146         1.472883
 H        -0.534578         0.409690         1.269638
 H        -0.074873         0.862796        -0.341492
 H        -0.812407        -0.820718        -0.074348
 H         4.120725        -1.064818         0.100244
 H         1.815412        -2.754813        -0.124984
 H         1.064909        -3.162690         2.288506
 H         2.743323        -3.396466         1.992722
 H         2.209633        -1.687434         4.092879
 H         3.548278        -1.780169         3.011017
 H         2.437807         1.023233         1.191308
