19
Iteration:   764charge 0 multiplicity 1
 C        -0.224875        -0.287101         0.179548
 C         1.251243        -0.450076         0.509539
 O         2.259325        -0.192196        -0.582378
 C         3.084577        -0.975996         0.485466
 C         1.808723        -1.850653         0.656897
 C         1.783296        -2.456939         2.074325
 C         2.603871        -1.678886         2.993243
 O         2.382106        -0.314043         2.772957
 C         2.387182         0.037338         1.432069
 H        -0.835443        -0.937869         0.825218
 H        -0.453033         0.773029         0.222946
 H        -0.548391        -0.422745        -0.823417
 H         4.215112        -1.131697         0.506210
 H         1.452576        -2.602798        -0.082749
 H         0.775355        -2.577592         2.386474
 H         1.980332        -3.599243         1.969610
 H         2.252645        -1.849693         4.005381
 H         3.658540        -1.844180         2.978980
 H         2.849481         1.033667         1.176755
