19
Iteration:   296
 C        -0.098687        -0.103125         0.367519
 C         1.270698        -0.631071         0.447458
 O         2.240841        -0.313488        -0.699301
 C         3.059697        -0.777486         0.389223
 C         1.990736        -1.965650         0.705616
 C         1.717273        -2.553319         2.079323
 C         2.424510        -1.727181         3.024988
 O         2.421307        -0.235475         2.772913
 C         2.258979         0.081129         1.421296
 H        -0.691631        -0.282437         1.284831
 H         0.161496         0.956837         0.331531
 H        -0.483699        -0.241427        -0.587330
 H         4.114667        -0.819069         0.265978
 H         2.003265        -2.717085        -0.008646
 H         0.659959        -2.791376         2.258541
 H         2.174316        -3.647174         2.104058
 H         2.250272        -1.797266         4.072189
 H         3.449119        -2.107217         2.790667
 H         2.224362         1.136739         1.267010
