19
Iteration:  1025charge 0 multiplicity 1
 C        -0.208780        -0.065072         0.339332
 C         1.235803        -0.572899         0.447063
 O         2.260637        -0.252471        -0.711491
 C         3.088424        -0.891973         0.377881
 C         1.978799        -1.937809         0.696450
 C         1.862608        -2.616206         2.057994
 C         2.507510        -1.638809         3.090175
 O         2.247242        -0.284283         2.786022
 C         2.355966         0.016016         1.430925
 H        -0.791853        -0.287992         1.245244
 H        -0.164209         1.026459         0.366836
 H        -0.792496        -0.387493        -0.517683
 H         4.127173        -1.073604         0.092659
 H         1.957041        -2.655238        -0.167790
 H         0.732916        -2.735093         2.261743
 H         2.344926        -3.586626         1.991579
 H         2.052076        -1.795200         4.059807
 H         3.701227        -1.670583         3.104490
 H         2.795159         1.020154         1.274955
