19
Iteration:  1402charge 0 multiplicity 1
 C        -0.163975        -0.060023         0.278753
 C         1.244572        -0.596098         0.458511
 O         2.175239        -0.330993        -0.713876
 C         3.132928        -0.852648         0.472237
 C         2.005498        -2.002341         0.648529
 C         1.837751        -2.505106         1.996805
 C         2.536600        -1.673347         3.051671
 O         2.311380        -0.267896         2.842619
 C         2.267375         0.033188         1.423715
 H        -0.775242        -0.526135         1.099506
 H        -0.223559         0.994926         0.623386
 H        -0.331256        -0.217590        -0.777008
 H         4.256590        -0.852472         0.335832
 H         1.790567        -2.598748        -0.244007
 H         0.789941        -2.455304         2.423267
 H         2.298048        -3.543133         2.251414
 H         2.085998        -1.786184         4.065729
 H         3.519119        -1.917338         3.101526
 H         2.407568         1.142757         1.277648
