19
Iteration:  1260
 C        -0.134781        -0.321652         0.333565
 C         1.382725        -0.409677         0.455308
 O         2.269237        -0.199159        -0.648042
 C         3.090937        -0.909946         0.440974
 C         1.757762        -1.851491         0.708735
 C         1.798603        -2.602409         2.060278
 C         2.456145        -1.682165         2.999410
 O         2.295742        -0.264028         2.764588
 C         2.403211         0.109685         1.394323
 H        -0.481069        -0.411779         1.353125
 H        -0.399369         0.655815        -0.073563
 H        -0.326487        -1.131256        -0.362656
 H         4.084025        -1.218210         0.042787
 H         1.409594        -2.618744         0.043619
 H         0.739083        -2.846584         2.321359
 H         2.440092        -3.561763         1.935465
 H         2.004413        -1.842070         4.011857
 H         3.528258        -1.917202         3.037283
 H         2.840247         1.112959         1.298399
