19
Iteration:  2038charge 0 multiplicity 1
 C        -0.122057        -0.046478         0.366904
 C         1.269182        -0.569027         0.432579
 O         2.171599        -0.275364        -0.715898
 C         3.135191        -0.871287         0.424428
 C         2.038009        -1.950672         0.693965
 C         1.848337        -2.647211         2.023397
 C         2.488700        -1.718787         3.003152
 O         2.188366        -0.263135         2.814927
 C         2.337510         0.105300         1.438737
 H        -0.807343        -0.228929         1.140797
 H        -0.023237         1.005941         0.401955
 H        -0.654904        -0.371228        -0.518304
 H         4.204874        -1.015021         0.324223
 H         1.991139        -2.681192        -0.108945
 H         0.854776        -2.573243         2.165967
 H         2.290972        -3.648390         2.083638
 H         2.228814        -2.029602         4.070927
 H         3.587735        -1.870657         2.997772
 H         2.557156         1.192467         1.440085
