19
Iteration:   646
 C        -0.128318        -0.169099         0.322520
 C         1.253614        -0.521038         0.592610
 O         2.299054        -0.232057        -0.614307
 C         2.988689        -1.008043         0.293435
 C         1.854038        -1.824543         0.730645
 C         1.876572        -2.581019         1.966798
 C         2.489265        -1.651950         3.058290
 O         2.245085        -0.254002         2.752940
 C         2.440268         0.068146         1.417552
 H        -0.589125        -0.227721         1.341108
 H        -0.277199         0.684326        -0.355736
 H        -0.551091        -0.964509        -0.287384
 H         4.099749        -1.315090         0.352047
 H         1.685564        -2.537783        -0.093236
 H         0.819789        -2.854619         2.280947
 H         2.200814        -3.578311         1.793826
 H         2.209224        -1.744812         4.063002
 H         3.495937        -1.784529         2.971061
 H         2.843261         1.144287         1.319469
