19
Iteration:   386charge 0 multiplicity 1
 C        -0.200146        -0.016898         0.236683
 C         1.207078        -0.589320         0.440482
 O         2.229042        -0.341997        -0.704003
 C         3.073085        -0.827728         0.384559
 C         2.004108        -1.967491         0.663380
 C         1.767380        -2.515973         2.074708
 C         2.568089        -1.690009         3.078829
 O         2.392136        -0.302345         2.804890
 C         2.289724         0.003590         1.504426
 H        -0.869109        -0.190083         1.093540
 H        -0.100915         1.059194         0.101061
 H        -0.854276        -0.404272        -0.557543
 H         4.217563        -0.810764         0.352712
 H         2.086327        -2.765733        -0.105714
 H         0.689637        -2.334828         2.271398
 H         1.904224        -3.708619         2.158696
 H         2.297502        -1.818128         4.131229
 H         3.813776        -1.840990         3.009485
 H         2.301599         1.150343         1.514892
