19
Iteration:  2573
 C        -0.180842        -0.145825         0.301094
 C         1.261273        -0.365475         0.465704
 O         2.309826        -0.211347        -0.639384
 C         3.012192        -0.931055         0.427585
 C         1.873747        -1.905755         0.645297
 C         1.975142        -2.623056         2.034737
 C         2.455755        -1.693951         3.041661
 O         2.153233        -0.339020         2.803264
 C         2.435816         0.079338         1.438260
 H        -0.526640        -0.840359         1.104825
 H        -0.426072         0.913321         0.527530
 H        -0.531573        -0.491597        -0.678274
 H         3.988006        -1.273124         0.064832
 H         1.734631        -2.635674        -0.202810
 H         1.078027        -3.089487         2.122166
 H         2.688352        -3.500777         1.813116
 H         2.089347        -1.828397         4.094778
 H         3.624657        -1.771479         3.137194
 H         2.802681         1.146941         1.328815
