19
Iteration:  1568charge 0 multiplicity 1
 C        -0.147878        -0.183929         0.212568
 C         1.279140        -0.362656         0.515398
 O         2.267052        -0.212062        -0.653605
 C         3.026373        -0.959655         0.425254
 C         1.778732        -1.933437         0.718604
 C         1.905865        -2.651068         2.109495
 C         2.569067        -1.636401         3.029068
 O         2.201202        -0.292179         2.754556
 C         2.446049         0.070178         1.416396
 H        -0.693903        -0.531418         1.065082
 H        -0.644648         0.781651         0.141720
 H        -0.403647        -0.669849        -0.683244
 H         3.970053        -1.139923         0.063163
 H         1.697539        -2.494199        -0.151699
 H         0.920562        -3.085284         2.450464
 H         2.652494        -3.482664         1.916685
 H         2.198440        -1.839767         4.089425
 H         3.777826        -1.896929         3.041352
 H         2.675081         1.103857         1.514848
