19
Iteration:  3226charge 0 multiplicity 1
 C        -0.181577        -0.120831         0.166110
 C         1.252604        -0.540462         0.539740
 O         2.128219        -0.208518        -0.610876
 C         3.136058        -0.837645         0.441922
 C         1.994889        -1.950323         0.638975
 C         1.858588        -2.557379         2.036905
 C         2.614493        -1.722485         3.026992
 O         2.225078        -0.336426         2.800148
 C         2.326336         0.066744         1.522092
 H        -0.900658        -0.473820         0.873260
 H        -0.018752         0.939085         0.131041
 H        -0.458286        -0.671836        -0.741898
 H         4.168989        -0.872331         0.060128
 H         1.864966        -2.543144        -0.242056
 H         0.823361        -2.579323         2.195384
 H         2.435071        -3.586789         1.961989
 H         2.298775        -2.072362         4.035413
 H         3.631070        -1.840879         3.001315
 H         2.413589         1.157461         1.415312
