19
Iteration:  1893charge 0 multiplicity 1
 C        -0.140954        -0.093699         0.258358
 C         1.300546        -0.477846         0.453740
 O         2.205150        -0.274148        -0.630652
 C         3.119871        -0.958940         0.380429
 C         1.918444        -1.901537         0.674172
 C         1.909735        -2.610905         2.021860
 C         2.543655        -1.709769         3.018098
 O         2.131483        -0.316130         2.855414
 C         2.343335         0.131411         1.451077
 H        -0.633460        -0.126086         1.236558
 H        -0.116237         0.985467         0.023972
 H        -0.681878        -0.629805        -0.484799
 H         4.126236        -1.271476         0.144793
 H         1.659432        -2.541218        -0.236180
 H         0.772487        -2.900734         2.424364
 H         2.648426        -3.553603         2.027196
 H         2.475857        -1.858075         4.169946
 H         3.706520        -1.598258         2.910869
 H         2.645825         1.179744         1.280202
