19
Iteration:  2163charge 0 multiplicity 1
 C        -0.119978        -0.300628         0.300639
 C         1.309733        -0.462973         0.450356
 O         2.293518        -0.153863        -0.616280
 C         3.038672        -0.947348         0.492506
 C         1.869641        -1.856770         0.591036
 C         1.752797        -2.590199         2.019582
 C         2.507109        -1.731097         3.046616
 O         2.376406        -0.230500         2.836925
 C         2.339166         0.084092         1.425382
 H        -0.643796        -0.709777         1.238327
 H        -0.581730         0.718372         0.016953
 H        -0.596626        -0.838410        -0.555366
 H         4.064791        -1.314435         0.144565
 H         1.621731        -2.513046        -0.246237
 H         0.645879        -2.672753         2.262798
 H         2.086968        -3.522431         1.681444
 H         2.157620        -1.808449         4.061453
 H         3.553031        -1.893857         2.802956
 H         2.549808         1.160423         1.340506
