19
Iteration:  4224charge 0 multiplicity 1
 C        -0.149890        -0.340087         0.342694
 C         1.257618        -0.571677         0.512592
 O         2.218371        -0.187534        -0.587054
 C         3.076479        -0.942869         0.353894
 C         1.949237        -1.935764         0.603035
 C         1.738372        -2.485228         2.009856
 C         2.522920        -1.586624         3.116531
 O         2.316995        -0.209590         2.778129
 C         2.404014         0.047616         1.383906
 H        -0.734161         0.135813         1.217088
 H         0.050306         0.456854        -0.482050
 H        -0.770755        -1.136301        -0.150901
 H         4.219736        -1.053953         0.307877
 H         1.870186        -2.695741        -0.233501
 H         0.644459        -2.713858         2.142372
 H         2.107522        -3.495418         2.300429
 H         2.067907        -1.814397         4.068718
 H         3.587834        -1.864844         2.984545
 H         2.739743         1.105740         1.105211
