19
Iteration:  1487
 C        -0.152272        -0.206398         0.290064
 C         1.289472        -0.471313         0.524776
 O         2.280926        -0.300991        -0.651512
 C         3.034026        -0.870993         0.367887
 C         1.928722        -1.901399         0.637967
 C         1.809216        -2.569755         2.006517
 C         2.499043        -1.631916         3.073830
 O         2.287399        -0.238899         2.831625
 C         2.375462         0.038945         1.438894
 H        -0.753950        -0.202224         1.255024
 H        -0.356195         0.714639        -0.333205
 H        -0.735546        -1.068307        -0.171159
 H         4.145273        -1.013793         0.107974
 H         1.686116        -2.587050        -0.268518
 H         0.736148        -2.760776         2.147974
 H         2.221353        -3.545723         2.028449
 H         2.222449        -1.907207         4.101627
 H         3.651938        -1.959126         2.824019
 H         2.621738         1.114940         1.533963
