19
Iteration:  2759
 C        -0.124741        -0.163962         0.349398
 C         1.317620        -0.475555         0.474904
 O         2.198237        -0.185400        -0.660798
 C         3.132393        -0.878740         0.349327
 C         1.969774        -1.902645         0.633475
 C         1.885143        -2.648052         2.040694
 C         2.477002        -1.683148         3.060483
 O         2.124694        -0.296784         2.817639
 C         2.419660         0.056596         1.445848
 H        -0.840020        -0.798161         0.867565
 H        -0.290259         0.882050         0.528231
 H        -0.530281        -0.437076        -0.643290
 H         4.200522        -0.880953         0.136288
 H         1.744555        -2.729842        -0.077637
 H         0.784033        -2.819361         2.111508
 H         2.441012        -3.682880         1.970204
 H         2.008291        -1.792090         4.028903
 H         3.551585        -2.005429         3.061842
 H         2.771513         1.118318         1.442789
