19
Iteration:  1915charge 0 multiplicity 1
 C        -0.121532        -0.052630         0.287688
 C         1.243155        -0.625189         0.478944
 O         2.274288        -0.243281        -0.690674
 C         2.987095        -0.801806         0.441935
 C         2.017884        -2.002993         0.637390
 C         1.817174        -2.542061         1.982064
 C         2.605551        -1.645121         3.035997
 O         2.237375        -0.326371         2.825037
 C         2.275823        -0.017562         1.493818
 H        -0.748403         0.042583         1.175028
 H         0.027117         1.022354         0.019705
 H        -0.720893        -0.476204        -0.469432
 H         4.041211        -0.929825         0.284825
 H         1.909458        -2.786245        -0.183445
 H         0.700431        -2.493233         2.434504
 H         2.154777        -3.688173         2.109964
 H         2.335414        -1.859905         4.188798
 H         3.809968        -1.727678         2.975240
 H         2.335354         1.042274         1.203826
