19
Iteration:  4409
 C        -0.184317        -0.290841         0.242360
 C         1.269857        -0.530184         0.457089
 O         2.218907        -0.282231        -0.619969
 C         3.045078        -0.874517         0.458181
 C         1.944690        -1.877776         0.676347
 C         1.722768        -2.489504         2.029998
 C         2.528574        -1.624674         3.059089
 O         2.407970        -0.262035         2.781587
 C         2.400586         0.047167         1.415541
 H        -0.629094        -0.804270         1.069777
 H        -0.507166         0.706753         0.103299
 H        -0.593044        -0.900270        -0.564090
 H         4.141062        -0.973919         0.130165
 H         1.809133        -2.490895        -0.222866
 H         0.666362        -2.433532         2.417295
 H         2.023710        -3.534669         2.204904
 H         2.174554        -1.775371         4.050743
 H         3.622416        -1.769730         3.019071
 H         2.474431         1.158431         1.327263
