19
Iteration:  3189
 C        -0.242400        -0.307911         0.188357
 C         1.272953        -0.532135         0.369582
 O         2.274238        -0.125859        -0.587199
 C         3.096162        -0.844089         0.521745
 C         1.926815        -1.869098         0.596556
 C         1.710705        -2.489363         2.038362
 C         2.613624        -1.724609         2.972832
 O         2.395049        -0.337042         2.843499
 C         2.281245         0.056951         1.504476
 H        -0.818310        -0.700603         1.088083
 H        -0.650720         0.732804         0.010778
 H        -0.689953        -0.797105        -0.737703
 H         4.178839        -0.992694         0.599819
 H         1.903980        -2.630228        -0.231925
 H         0.721720        -2.681833         2.601913
 H         2.031728        -3.476125         2.001769
 H         2.385635        -1.907173         4.102033
 H         3.741757        -2.003393         2.854170
 H         2.516368         1.180565         1.491713
