19
Iteration:  3221
 C        -0.187059        -0.152652         0.156362
 C         1.279423        -0.586825         0.513410
 O         2.159523        -0.217139        -0.585350
 C         3.100810        -0.824540         0.369386
 C         1.997785        -1.903325         0.626745
 C         1.838458        -2.569433         2.037637
 C         2.617514        -1.744877         3.020395
 O         2.260151        -0.337245         2.860561
 C         2.289779         0.082282         1.506302
 H        -0.939395        -0.380978         0.971329
 H        -0.180198         0.982544         0.107241
 H        -0.454542        -0.600197        -0.841707
 H         4.191897        -0.911447         0.206965
 H         1.920954        -2.578787        -0.275439
 H         0.708228        -2.520278         2.328220
 H         2.194255        -3.533620         1.949006
 H         2.234202        -1.965955         4.071361
 H         3.835653        -1.643674         2.980672
 H         2.464207         1.199055         1.526145
