19
Iteration:  1883charge 0 multiplicity 1
 C        -0.173345        -0.118282         0.276523
 C         1.294066        -0.456289         0.524382
 O         2.302847        -0.249263        -0.688724
 C         3.015649        -0.951246         0.384948
 C         1.905742        -1.878581         0.734478
 C         1.920491        -2.650153         2.018765
 C         2.555585        -1.633602         3.035203
 O         2.126648        -0.301441         2.794614
 C         2.414746         0.093853         1.478757
 H        -0.785536        -0.224041         1.189414
 H        -0.260324         0.949970        -0.039422
 H        -0.697270        -0.664817        -0.503412
 H         3.967108        -1.302775         0.044980
 H         1.620788        -2.600206        -0.096367
 H         0.896650        -3.250130         2.341697
 H         2.618630        -3.572779         1.804431
 H         2.213238        -1.972789         4.086380
 H         3.617569        -1.812013         2.801008
 H         2.673495         1.185797         1.427623
