19
Iteration:    94
 C        -0.168431        -0.093312         0.317300
 C         1.264183        -0.579267         0.506495
 O         2.161284        -0.324054        -0.661270
 C         3.117117        -0.885892         0.372121
 C         2.015318        -2.023685         0.662929
 C         1.715260        -2.517641         2.059307
 C         2.506520        -1.655586         3.053942
 O         2.399479        -0.241490         2.811340
 C         2.347614         0.053645         1.425358
 H        -1.102818        -0.670426         0.537725
 H        -0.216573         0.912055         0.771195
 H         0.054506         0.137635        -0.803158
 H         4.209796        -0.972255         0.091193
 H         1.877676        -2.720925        -0.216953
 H         0.523721        -2.342915         2.096497
 H         1.885903        -3.604360         2.062200
 H         2.035757        -1.766733         4.069996
 H         3.619131        -1.880399         3.188128
 H         2.506477         1.160345         1.220809
