19
Iteration:  3036charge 0 multiplicity 1
 C        -0.141007        -0.221960         0.205073
 C         1.244717        -0.531116         0.442149
 O         2.264261        -0.230447        -0.602697
 C         3.060601        -0.832435         0.539320
 C         1.923691        -1.881872         0.588760
 C         1.786813        -2.577243         1.959530
 C         2.632508        -1.699464         3.006574
 O         2.318553        -0.272122         2.853486
 C         2.250535         0.054094         1.524866
 H        -0.726994        -0.388139         1.110830
 H        -0.259424         0.858768         0.031791
 H        -0.743957        -0.870933        -0.416455
 H         4.141644        -1.020428         0.432132
 H         1.761505        -2.522124        -0.312613
 H         0.724937        -2.575016         2.062798
 H         2.328132        -3.520771         1.948404
 H         2.226539        -1.950276         4.044495
 H         3.756972        -2.030782         2.823968
 H         2.307535         1.132193         1.256695
