19
Iteration:   114
 C        -0.175474        -0.190394         0.279623
 C         1.278969        -0.440773         0.422279
 O         2.288081        -0.211123        -0.659700
 C         3.070189        -0.964196         0.384035
 C         1.785333        -1.945170         0.695768
 C         1.778101        -2.516048         2.099237
 C         2.477897        -1.654349         3.099756
 O         2.344068        -0.281349         2.769362
 C         2.487004         0.008052         1.381101
 H        -0.518779        -1.054032         0.933460
 H        -0.541191         0.664909         0.886216
 H        -0.579120        -0.076578        -0.735935
 H         4.161232        -1.099365         0.174700
 H         1.593688        -2.660594        -0.162361
 H         0.705743        -2.635163         2.465279
 H         2.263103        -3.461602         2.093115
 H         2.153723        -1.763329         4.107795
 H         3.482689        -1.893337         3.067647
 H         2.678076         1.084822         1.253962
