19
Iteration:  1813
 C        -0.107158        -0.232453         0.325717
 C         1.288464        -0.599998         0.487470
 O         2.164781        -0.232456        -0.611985
 C         3.128810        -0.800483         0.400358
 C         2.040834        -1.873357         0.676595
 C         1.730371        -2.521266         1.977188
 C         2.475207        -1.714279         3.077860
 O         2.357672        -0.317383         2.728009
 C         2.315109         0.081268         1.454012
 H        -0.807530        -0.510852         1.096267
 H        -0.157081         0.841239         0.265146
 H        -0.519942        -0.672270        -0.620811
 H         4.218187        -0.947417         0.091496
 H         2.028409        -2.647113        -0.098154
 H         0.652449        -2.260847         2.248253
 H         1.687053        -3.678153         2.133373
 H         2.029993        -1.774287         4.023954
 H         3.591236        -1.983602         3.158531
 H         2.396447         1.145464         1.239157
