19
Iteration:  3670
 C        -0.129142        -0.246083         0.333230
 C         1.293984        -0.585864         0.495570
 O         2.230617        -0.167766        -0.581573
 C         3.057069        -0.899054         0.381223
 C         1.958076        -1.973501         0.614015
 C         1.831978        -2.530285         1.994890
 C         2.428389        -1.676074         3.054095
 O         2.364290        -0.192112         2.769946
 C         2.342340         0.022633         1.434081
 H        -0.780458        -1.025870         0.758201
 H        -0.376917         0.711517         0.806191
 H        -0.364354        -0.409807        -0.740079
 H         4.086059        -0.948165         0.354271
 H         1.838414        -2.584801        -0.293150
 H         0.695140        -2.468961         2.090058
 H         2.294718        -3.512736         2.135889
 H         1.826880        -1.788046         3.943235
 H         3.480941        -1.886429         3.313831
 H         2.328568         1.122962         1.117787
