19
Iteration:  4609charge 0 multiplicity 1
 C        -0.245840        -0.377988         0.178460
 C         1.300165        -0.539621         0.486519
 O         2.234285        -0.187700        -0.646917
 C         3.057612        -0.866739         0.383922
 C         1.891271        -1.917484         0.652754
 C         1.744172        -2.447905         2.087800
 C         2.556589        -1.702866         3.048143
 O         2.430808        -0.229736         2.847837
 C         2.447312         0.040476         1.455148
 H        -0.880697        -0.898226         0.876630
 H        -0.706075         0.595356         0.344580
 H        -0.443163        -0.615207        -0.845166
 H         4.113053        -0.823974         0.111761
 H         1.523511        -2.573402        -0.125400
 H         0.568864        -2.346687         2.225203
 H         2.059887        -3.491623         2.195356
 H         1.984751        -1.918719         3.970511
 H         3.572426        -1.883912         3.204660
 H         2.496670         1.172863         1.500027
