19
Iteration:  1104
 C        -0.133331        -0.194125         0.297762
 C         1.264317        -0.683545         0.357907
 O         2.199399        -0.283595        -0.690894
 C         3.017135        -0.797703         0.474668
 C         2.027874        -1.903179         0.609969
 C         1.735832        -2.465260         2.001671
 C         2.474683        -1.728223         3.118703
 O         2.388594        -0.284130         2.851450
 C         2.336040         0.102230         1.472299
 H        -0.274291         0.061865         1.398465
 H        -0.082397         0.816523        -0.056989
 H        -0.920525        -0.744293        -0.217371
 H         4.091806        -0.858763         0.131621
 H         2.059517        -2.584196        -0.261403
 H         0.629617        -2.406058         2.137861
 H         2.026598        -3.566383         2.040149
 H         2.232185        -1.981896         4.118572
 H         3.722361        -1.998021         3.050304
 H         2.370534         1.167369         1.278245
