19
Iteration:  4546
 C        -0.157991        -0.143343         0.178834
 C         1.245780        -0.531973         0.428394
 O         2.205580        -0.240638        -0.614940
 C         2.988711        -0.960571         0.443760
 C         1.956764        -2.002606         0.655727
 C         1.846075        -2.533707         2.072415
 C         2.690816        -1.619355         3.050397
 O         2.229404        -0.232410         2.849632
 C         2.331164         0.022168         1.466401
 H        -0.757383        -0.570220         1.017780
 H        -0.123822         1.015527         0.120696
 H        -0.473469        -0.454731        -0.863813
 H         3.980897        -1.166624         0.242185
 H         1.627919        -2.632781        -0.187779
 H         0.855530        -2.625097         2.514961
 H         2.364276        -3.448323         2.071355
 H         2.570670        -1.919155         4.130328
 H         3.746802        -1.686899         2.670245
 H         2.362541         1.078226         1.168195
