19
Iteration:  3733charge 0 multiplicity 1
 C        -0.174957        -0.311556         0.244366
 C         1.243839        -0.516130         0.505143
 O         2.236307        -0.191954        -0.558621
 C         3.076968        -0.887773         0.479181
 C         1.949283        -1.919159         0.596157
 C         1.738037        -2.534531         2.004313
 C         2.539132        -1.658635         2.985990
 O         2.350673        -0.230446         2.797663
 C         2.407155         0.050065         1.454299
 H        -0.803270        -0.220078         1.124588
 H        -0.357766         0.719883        -0.170028
 H        -0.574846        -1.135622        -0.420653
 H         4.167020        -1.137366         0.380641
 H         1.705532        -2.631760        -0.225463
 H         0.699524        -2.604058         2.248726
 H         2.058444        -3.552787         2.151154
 H         2.232643        -1.721385         3.980862
 H         3.611177        -1.951133         2.705513
 H         2.454927         1.119551         1.355300
