19
Iteration:  4710
 C        -0.199926        -0.049009         0.267384
 C         1.276953        -0.559205         0.558007
 O         2.240352        -0.191449        -0.622691
 C         3.091267        -0.946510         0.403777
 C         1.893518        -1.991076         0.607942
 C         2.026540        -2.653319         2.019223
 C         2.549090        -1.644192         3.067981
 O         2.162126        -0.270896         2.766936
 C         2.323467         0.044731         1.441244
 H        -0.601088         0.298347         1.192054
 H        -0.096000         0.790485        -0.457042
 H        -0.921834        -0.737508        -0.179390
 H         4.076543        -1.217815         0.263827
 H         1.567976        -2.755826        -0.129396
 H         0.935942        -2.920255         2.401317
 H         2.644077        -3.472334         1.769154
 H         2.110694        -1.766050         4.087143
 H         3.677707        -1.565801         3.122738
 H         2.565824         1.114664         1.419733
