19
Iteration:   414charge 0 multiplicity 1
 C        -0.088700        -0.191242         0.230316
 C         1.282149        -0.576151         0.420810
 O         2.160028        -0.198112        -0.691020
 C         3.080369        -0.877577         0.412560
 C         1.890732        -1.937686         0.686696
 C         1.705635        -2.506514         2.101435
 C         2.585307        -1.698023         3.050509
 O         2.371988        -0.333988         2.839400
 C         2.359071         0.090641         1.425743
 H        -0.472238         0.081103         1.250432
 H        -0.133504         0.725068        -0.415410
 H        -0.812142        -0.842870        -0.278395
 H         4.129094        -0.921294         0.357592
 H         1.917515        -2.723080        -0.052981
 H         0.660489        -2.530884         2.444884
 H         1.979237        -3.500520         2.145679
 H         2.361823        -1.867031         4.109299
 H         3.544113        -1.903940         2.921795
 H         2.473148         1.142799         1.388344
