19
Iteration:  2083charge 0 multiplicity 1
 C        -0.284501        -0.103782         0.264886
 C         1.256407        -0.421000         0.472319
 O         2.353233        -0.201008        -0.650673
 C         3.067125        -1.029770         0.444983
 C         1.890555        -1.912182         0.621170
 C         1.905580        -2.633232         2.002482
 C         2.583283        -1.667732         3.095310
 O         2.184764        -0.230814         2.867966
 C         2.379388         0.011124         1.416035
 H        -0.777996        -0.187035         1.228740
 H        -0.439745         0.925002         0.052980
 H        -0.736290        -0.846145        -0.413226
 H         4.043317        -1.394168         0.025011
 H         1.556581        -2.478954        -0.211228
 H         0.972286        -2.935298         2.167100
 H         2.578622        -3.410379         1.631208
 H         2.273764        -2.100636         4.037030
 H         3.647140        -1.873205         3.120123
 H         2.634214         1.083659         1.269287
