19
Iteration:  1898charge 0 multiplicity 1
 C        -0.115215        -0.047703         0.268990
 C         1.295904        -0.500188         0.431248
 O         2.176499        -0.290224        -0.613445
 C         3.133651        -0.938170         0.395904
 C         1.904397        -1.935651         0.623506
 C         1.907578        -2.596548         2.048404
 C         2.573297        -1.710163         3.020809
 O         2.142721        -0.301901         2.865540
 C         2.299412         0.080031         1.436239
 H        -0.561751        -0.185086         1.274922
 H        -0.059396         1.019125        -0.015879
 H        -0.577364        -0.752066        -0.509148
 H         4.247332        -1.036969         0.206293
 H         1.730504        -2.499839        -0.276857
 H         0.878093        -2.677091         2.286076
 H         2.473058        -3.460877         2.051733
 H         2.485555        -1.883355         4.076218
 H         3.616022        -1.649470         2.973891
 H         2.595209         1.163933         1.384668
