19
Iteration:  4736charge 0 multiplicity 1
 C        -0.220209        -0.127775         0.123223
 C         1.253887        -0.444607         0.422814
 O         2.213212        -0.270056        -0.680139
 C         3.018535        -0.841086         0.448029
 C         1.910819        -1.891457         0.651548
 C         1.890112        -2.568751         2.065853
 C         2.590344        -1.725144         3.087929
 O         2.336197        -0.320782         2.863567
 C         2.306853         0.038374         1.532700
 H        -0.662285        -0.113374         1.201098
 H        -0.443319         0.786881        -0.468346
 H        -0.749690        -1.002756        -0.382143
 H         4.140646        -1.099655         0.271175
 H         1.888767        -2.780203        -0.059163
 H         0.887458        -2.829377         2.305966
 H         2.483735        -3.492371         1.763189
 H         2.407398        -1.796071         4.152805
 H         3.624771        -1.814433         2.930678
 H         2.559245         1.111259         1.551659
