19
Iteration:   334
 C        -0.164257        -0.186655         0.329771
 C         1.305962        -0.442002         0.491407
 O         2.295906        -0.215829        -0.667379
 C         3.011714        -1.053413         0.274347
 C         1.800542        -1.894057         0.663054
 C         1.858721        -2.487676         2.067458
 C         2.521748        -1.657051         3.105018
 O         2.232313        -0.242949         2.820353
 C         2.488070         0.011131         1.421743
 H        -0.909646        -0.842688         0.738732
 H        -0.467948         0.842731         0.572859
 H        -0.468365        -0.500400        -0.742771
 H         4.075629        -1.418702         0.093679
 H         1.385631        -2.661814        -0.121199
 H         0.838686        -2.846975         2.327441
 H         2.601522        -3.316767         2.041598
 H         2.135744        -1.991953         4.100059
 H         3.539674        -1.696536         3.093681
 H         2.882292         1.085560         1.399560
