19
Iteration:  2613
 C        -0.170900        -0.113451         0.206630
 C         1.281201        -0.575004         0.450322
 O         2.207328        -0.207689        -0.597224
 C         3.055346        -0.848433         0.416905
 C         2.035239        -1.966499         0.582590
 C         1.832520        -2.515716         1.992856
 C         2.518413        -1.786126         3.067497
 O         2.289882        -0.281748         2.829706
 C         2.296702         0.065771         1.508349
 H        -0.723020        -0.211494         1.101554
 H        -0.360563         0.936082        -0.002637
 H        -0.693388        -0.551187        -0.673500
 H         4.118562        -0.978706         0.337574
 H         1.953686        -2.625110        -0.303962
 H         0.742165        -2.738138         2.406270
 H         2.267442        -3.523320         2.293957
 H         2.418341        -2.100204         4.150379
 H         3.588826        -1.885676         2.941799
 H         2.483312         1.171207         1.511213
