19
Iteration:  4005charge 0 multiplicity 1
 C        -0.136444        -0.087227         0.321573
 C         1.248217        -0.577530         0.469584
 O         2.206048        -0.315458        -0.655547
 C         3.107629        -0.925503         0.382913
 C         1.988141        -1.967697         0.682083
 C         1.905847        -2.553570         2.073691
 C         2.534686        -1.589807         3.018669
 O         2.148198        -0.240938         2.801023
 C         2.323346         0.024505         1.471808
 H        -0.512481         0.185736         1.272503
 H        -0.157560         0.738350        -0.413312
 H        -0.910321        -0.642451        -0.186287
 H         4.127703        -0.877448        -0.095004
 H         2.004328        -2.715274        -0.158288
 H         0.876167        -2.858156         2.134501
 H         2.551167        -3.442474         2.024071
 H         2.328437        -1.865486         4.046708
 H         3.729634        -1.774474         2.864991
 H         2.563111         1.061665         1.328158
