19
Iteration:  1669charge 0 multiplicity 1
 C        -0.165640        -0.220238         0.310216
 C         1.268594        -0.437367         0.508767
 O         2.288096        -0.219861        -0.645164
 C         3.100709        -0.947124         0.352654
 C         1.830405        -1.864588         0.603100
 C         1.865472        -2.562503         2.015607
 C         2.541847        -1.665954         3.072307
 O         2.154752        -0.248636         2.830134
 C         2.454851         0.015192         1.436702
 H        -0.688951        -0.419711         1.207236
 H        -0.491428         0.756215         0.035678
 H        -0.517816        -1.103269        -0.226279
 H         4.112123        -1.424277         0.266463
 H         1.662912        -2.450876        -0.287055
 H         0.802257        -2.854841         2.352561
 H         2.501975        -3.479798         1.703968
 H         2.212903        -1.854540         4.073205
 H         3.646577        -1.760163         3.106915
 H         2.849134         1.074563         1.399926
