19
Iteration:  3111charge 0 multiplicity 1
 C        -0.179136        -0.053623         0.409604
 C         1.239886        -0.591404         0.422678
 O         2.309939        -0.214869        -0.653010
 C         3.113958        -0.831253         0.442662
 C         2.010993        -1.961241         0.636459
 C         1.960210        -2.699185         1.945808
 C         2.383915        -1.668688         3.062988
 O         2.235955        -0.271800         2.755930
 C         2.259240         0.055542         1.444666
 H        -0.865590        -0.410573         1.297594
 H        -0.143983         1.071870         0.266611
 H        -0.952785        -0.547269        -0.222099
 H         4.237543        -0.852847         0.248373
 H         1.990434        -2.598997        -0.320501
 H         0.861824        -3.078223         2.208609
 H         2.628076        -3.494198         1.980175
 H         2.086612        -1.958814         4.126215
 H         3.570359        -1.712122         3.223424
 H         2.318570         1.154525         1.345956
