19
Iteration:   489charge 0 multiplicity 1
 C        -0.180928        -0.040035         0.413426
 C         1.279969        -0.621100         0.523089
 O         2.201100        -0.288870        -0.753865
 C         3.102798        -0.845049         0.374926
 C         2.082540        -1.969706         0.675175
 C         1.869106        -2.605154         2.041932
 C         2.433375        -1.675449         3.063695
 O         2.239009        -0.278467         2.775483
 C         2.373142         0.036162         1.411040
 H        -0.607678         0.301691         1.362174
 H         0.077159         0.910911        -0.139934
 H        -0.909804        -0.459435        -0.275041
 H         4.036695        -1.073645         0.033475
 H         1.874917        -2.605725        -0.199228
 H         0.733394        -2.459399         2.204023
 H         1.986190        -3.657083         2.183252
 H         1.930214        -1.728491         4.092528
 H         3.678879        -1.782271         3.292817
 H         2.573393         1.055471         1.241445
