19
Iteration:  2132charge 0 multiplicity 1
 C        -0.211081        -0.137951         0.218449
 C         1.286998        -0.580989         0.463095
 O         2.194446        -0.241649        -0.612577
 C         3.085965        -0.739760         0.363902
 C         2.061382        -1.947743         0.580179
 C         1.742711        -2.553503         2.093276
 C         2.488740        -1.708066         3.115917
 O         2.363102        -0.333377         2.821084
 C         2.344969         0.005634         1.510982
 H        -0.771257        -0.141247         1.212501
 H        -0.102136         0.976513        -0.042236
 H        -0.632918        -0.907510        -0.466097
 H         4.116835        -0.776879         0.024989
 H         1.948750        -2.611411        -0.345802
 H         0.610388        -2.135388         2.118385
 H         1.881481        -3.537744         1.806449
 H         2.395626        -1.899478         4.200293
 H         3.513278        -2.094161         2.924082
 H         2.459494         1.060854         1.272972
