19
Iteration:  3857
 C        -0.146771        -0.325136         0.302538
 C         1.305185        -0.491792         0.531101
 O         2.235674        -0.240532        -0.702152
 C         3.098876        -0.831025         0.382924
 C         1.979777        -1.968153         0.717069
 C         1.706847        -2.574189         2.027154
 C         2.413469        -1.662124         3.036172
 O         2.341321        -0.224275         2.798350
 C         2.418630         0.137620         1.404577
 H        -0.704675        -0.836936         1.174315
 H        -0.539666         0.686328         0.531230
 H        -0.654998        -0.800312        -0.541402
 H         4.102827        -0.974927         0.049238
 H         1.812167        -2.549109        -0.207464
 H         0.695538        -2.611331         2.317371
 H         2.189616        -3.489810         2.214434
 H         2.210196        -1.924158         4.140761
 H         3.564604        -1.932161         2.898508
 H         2.717309         1.241041         1.247128
