19
Iteration:  3557charge 0 multiplicity 1
 C        -0.213795        -0.258317         0.221348
 C         1.274703        -0.491950         0.388840
 O         2.299833        -0.188588        -0.673672
 C         3.034185        -0.833694         0.414853
 C         1.930175        -1.876554         0.689831
 C         1.817978        -2.542295         2.085276
 C         2.559129        -1.718648         3.059687
 O         2.309877        -0.346153         2.835093
 C         2.342767         0.098133         1.455154
 H        -0.713737        -0.002199         1.202269
 H        -0.262319         0.636366        -0.505537
 H        -0.814084        -1.093379        -0.280680
 H         4.182161        -0.855920         0.398820
 H         1.692811        -2.659919        -0.079483
 H         0.615917        -2.719073         2.251809
 H         2.243498        -3.589473         2.096434
 H         2.178542        -2.053474         4.014483
 H         3.657392        -1.989802         3.154411
 H         2.461314         1.155596         1.567553
