19
Iteration:  1326charge 0 multiplicity 1
 C        -0.213906        -0.077373         0.273236
 C         1.232211        -0.599429         0.386505
 O         2.238293        -0.255222        -0.644063
 C         3.107997        -0.811604         0.430844
 C         1.985241        -1.989386         0.705614
 C         1.776519        -2.582197         2.088296
 C         2.537820        -1.694734         3.038381
 O         2.338767        -0.285649         2.795320
 C         2.310250         0.057534         1.441310
 H        -0.848058         0.104181         1.176504
 H        -0.160934         0.834467        -0.363627
 H        -0.672029        -0.741679        -0.500078
 H         4.226564        -0.756791         0.317404
 H         2.001204        -2.673719        -0.146983
 H         0.705878        -2.742039         2.455001
 H         2.183098        -3.676491         2.190982
 H         2.315839        -1.799704         4.171491
 H         3.721732        -1.932002         2.724363
 H         2.393807         1.189949         1.370141
