19
Iteration:  2438
 C        -0.091125        -0.083021         0.287351
 C         1.271221        -0.570330         0.439170
 O         2.199263        -0.288662        -0.687273
 C         3.101058        -0.704236         0.351920
 C         2.024933        -1.843146         0.649447
 C         1.776841        -2.547013         2.070867
 C         2.546287        -1.740417         3.093515
 O         2.263879        -0.433728         2.877491
 C         2.278029         0.046920         1.407773
 H        -0.878876        -0.091582         1.005320
 H        -0.016012         0.942153        -0.052714
 H        -0.628916        -0.649035        -0.485648
 H         4.114327        -0.923706         0.218620
 H         1.824029        -2.642094        -0.057935
 H         0.786820        -2.540558         2.315214
 H         2.265082        -3.585359         1.966586
 H         2.295478        -1.937411         4.167608
 H         3.667669        -2.031560         2.908812
 H         2.206778         1.096766         1.555231
