19
Iteration:  2627charge 0 multiplicity 1
 C        -0.252363        -0.109722         0.210212
 C         1.204759        -0.606340         0.357007
 O         2.296465        -0.161234        -0.598681
 C         3.084180        -0.805924         0.527535
 C         2.017668        -1.963464         0.609397
 C         1.760627        -2.595389         2.022924
 C         2.604349        -1.679523         3.034722
 O         2.387106        -0.300431         2.875279
 C         2.216106        -0.021964         1.465536
 H        -0.702874        -0.112499         1.201202
 H        -0.093034         0.919680        -0.110770
 H        -0.813890        -0.705370        -0.472970
 H         4.138114        -0.792117         0.313551
 H         2.007327        -2.740077        -0.208296
 H         0.704650        -2.448281         2.144034
 H         2.000976        -3.757975         1.915917
 H         2.188237        -1.890261         4.029776
 H         3.692558        -2.009718         2.933006
 H         2.255562         1.100043         1.290898
