19
Iteration:  3271
 C        -0.221928        -0.072632         0.439871
 C         1.268682        -0.542277         0.403964
 O         2.361917        -0.249253        -0.680335
 C         3.062786        -0.908416         0.390109
 C         1.903616        -1.899144         0.588520
 C         2.031791        -2.543711         1.946136
 C         2.479521        -1.656989         3.087207
 O         2.139093        -0.332539         2.867760
 C         2.283720         0.001750         1.408120
 H        -0.780350        -0.317224         1.366070
 H        -0.246509         0.987543         0.201570
 H        -0.732604        -0.709184        -0.291250
 H         4.172038        -1.128248         0.451949
 H         1.678985        -2.615997        -0.205671
 H         1.058681        -2.903867         2.140182
 H         2.928707        -3.308469         1.699613
 H         2.078859        -1.923224         4.079992
 H         3.549288        -1.577213         3.226414
 H         2.508568         1.048743         1.346913
