19
Iteration:  2960
 C        -0.231659        -0.252371         0.255320
 C         1.246134        -0.498775         0.468026
 O         2.277356        -0.226500        -0.584108
 C         3.088214        -0.863216         0.426236
 C         1.943291        -1.877272         0.538459
 C         1.829083        -2.673997         1.959008
 C         2.479309        -1.655902         3.049725
 O         2.300850        -0.221861         2.903426
 C         2.373179         0.095359         1.494768
 H        -0.757518        -0.660709         1.047864
 H        -0.535300         0.792428         0.374278
 H        -0.589407        -0.499380        -0.700597
 H         4.167719        -0.985164         0.254971
 H         1.914290        -2.563801        -0.269438
 H         0.785566        -2.953004         2.172192
 H         2.412427        -3.700193         1.735859
 H         2.321737        -1.983710         4.095932
 H         3.502740        -1.839409         2.846500
 H         2.728913         1.076076         1.227172
