19
Iteration:   103
 C        -0.157340        -0.113589         0.294683
 C         1.290457        -0.545545         0.486891
 O         2.201205        -0.264989        -0.633816
 C         3.034069        -0.950519         0.404787
 C         1.998075        -1.910569         0.629662
 C         1.743021        -2.562946         2.075939
 C         2.513151        -1.664646         3.118811
 O         2.365595        -0.247397         2.737036
 C         2.402429         0.048013         1.403646
 H        -0.904252        -0.947556         0.572378
 H        -0.398938         0.827047         0.831931
 H        -0.457902        -0.030067        -0.762063
 H         4.047686        -1.294852         0.114081
 H         1.805829        -2.584363        -0.253742
 H         0.620290        -2.416913         2.265951
 H         1.887411        -3.595980         2.269364
 H         2.106716        -1.720723         4.100146
 H         3.521957        -1.931326         3.151560
 H         2.755776         1.079878         1.269507
