19
Iteration:   867
 C        -0.200791        -0.129567         0.369772
 C         1.346239        -0.473701         0.474953
 O         2.256352        -0.291805        -0.670789
 C         3.021142        -0.978533         0.467364
 C         1.914162        -1.947614         0.633850
 C         1.912634        -2.599501         1.963288
 C         2.531886        -1.639893         3.051552
 O         2.192331        -0.284888         2.790045
 C         2.413292         0.121021         1.412606
 H        -0.496342         0.124723         1.336768
 H        -0.332707         0.837950        -0.010892
 H        -0.722032        -0.901441        -0.157430
 H         4.061635        -0.959349         0.142171
 H         1.442872        -2.536057        -0.141546
 H         0.785624        -2.721846         2.077476
 H         2.488934        -3.505483         2.069596
 H         1.976769        -2.030466         3.913743
 H         3.515167        -1.654510         3.268629
 H         2.772772         1.132612         1.295026
