19
Iteration:   808
 C        -0.124656        -0.055933         0.309343
 C         1.260838        -0.625518         0.433311
 O         2.165127        -0.292007        -0.685191
 C         3.106682        -0.847259         0.474202
 C         1.969221        -1.986923         0.659751
 C         1.790851        -2.430228         2.032710
 C         2.607185        -1.700945         3.107780
 O         2.324914        -0.318077         2.797732
 C         2.293165         0.028589         1.411705
 H        -0.925401        -0.499496         0.924327
 H        -0.126041         1.036104         0.181412
 H        -0.509841        -0.336852        -0.664062
 H         4.174353        -0.873818         0.088568
 H         1.912831        -2.591761        -0.260078
 H         0.800892        -2.458878         2.305408
 H         2.020612        -3.570782         2.111863
 H         2.166910        -1.932481         4.060435
 H         3.626136        -1.937526         3.132802
 H         2.116133         1.129289         1.359107
