19
Iteration:  3823charge 0 multiplicity 1
 C        -0.165358        -0.094581         0.291810
 C         1.252146        -0.580551         0.450640
 O         2.269832        -0.261320        -0.666250
 C         3.026617        -0.908303         0.446158
 C         1.924329        -1.984398         0.585031
 C         1.971613        -2.522805         2.037015
 C         2.596249        -1.585878         3.101724
 O         2.137473        -0.280665         2.838557
 C         2.306299        -0.004386         1.395058
 H        -0.345290        -0.070345         1.414544
 H         0.094763         0.977336         0.013999
 H        -0.874294        -0.598839        -0.395494
 H         4.050913        -1.177241         0.350544
 H         1.688650        -2.785869        -0.143682
 H         1.021299        -2.877701         2.323034
 H         2.444452        -3.466244         1.891810
 H         2.099731        -2.027368         3.999295
 H         3.789281        -1.476803         3.058166
 H         2.497790         1.132857         1.225084
