19
Iteration:  4293charge 0 multiplicity 1
 C        -0.178958        -0.190406         0.339636
 C         1.321895        -0.556665         0.443924
 O         2.230211        -0.270801        -0.657693
 C         3.044532        -0.901681         0.395698
 C         2.043752        -2.007503         0.609459
 C         1.782642        -2.546308         2.084351
 C         2.470272        -1.603204         3.097687
 O         2.305699        -0.194053         2.812851
 C         2.328243         0.056870         1.408990
 H        -0.561991        -0.374345         1.387036
 H        -0.137547         0.846994        -0.053776
 H        -0.727852        -0.844366        -0.399806
 H         3.985419        -0.814920        -0.027997
 H         1.760096        -2.585067        -0.260711
 H         0.739231        -2.889210         2.185462
 H         2.317403        -3.604027         2.046727
 H         2.105999        -1.781136         4.130962
 H         3.506171        -1.842646         3.002148
 H         2.624812         1.104421         1.137824
