19
Iteration:  3971
 C        -0.150014        -0.044330         0.262593
 C         1.277502        -0.522030         0.376998
 O         2.296059        -0.263524        -0.700772
 C         2.979962        -0.946628         0.451534
 C         1.882448        -1.987725         0.732085
 C         1.977039        -2.602077         2.121942
 C         2.666397        -1.589180         3.078095
 O         2.123662        -0.304324         2.761518
 C         2.198990         0.025292         1.423372
 H        -0.521529         0.033064         1.261606
 H        -0.017043         1.011894         0.017276
 H        -0.707384        -0.787685        -0.301470
 H         4.063696        -1.103409         0.135586
 H         1.911173        -2.568848        -0.207139
 H         0.975738        -2.848043         2.484875
 H         2.609582        -3.480185         2.124396
 H         2.557853        -1.789376         4.166297
 H         3.870391        -1.629079         2.783430
 H         2.475911         1.032514         1.384777
