19
Iteration:   331charge 0 multiplicity 1
 C        -0.192250        -0.177766         0.324699
 C         1.309155        -0.433549         0.480705
 O         2.277495        -0.228593        -0.654954
 C         3.026042        -1.056907         0.289866
 C         1.825560        -1.878787         0.652817
 C         1.866364        -2.480450         2.060835
 C         2.514689        -1.674240         3.128858
 O         2.233381        -0.223176         2.807057
 C         2.481870        -0.019768         1.412030
 H        -0.938573        -0.837160         0.824394
 H        -0.447632         0.843481         0.566400
 H        -0.442657        -0.427204        -0.706558
 H         4.107954        -1.370135         0.144545
 H         1.490308        -2.671127        -0.051452
 H         0.817136        -2.732161         2.250753
 H         2.584051        -3.464575         1.940747
 H         2.151993        -1.979924         4.088834
 H         3.595885        -1.716175         3.089008
 H         2.863636         1.036124         1.406384
