19
Iteration:  3443
 C        -0.124147        -0.074018         0.341989
 C         1.274223        -0.586852         0.426999
 O         2.189380        -0.261627        -0.645775
 C         3.093456        -0.921824         0.453328
 C         1.991603        -1.977296         0.609060
 C         1.936879        -2.593163         1.979806
 C         2.517412        -1.624357         2.959845
 O         2.076602        -0.239111         2.843748
 C         2.388447         0.030303         1.479420
 H        -0.691903        -0.542399         1.175158
 H        -0.092642         1.028623         0.433342
 H        -0.598488        -0.254429        -0.670849
 H         4.191650        -1.070972         0.361430
 H         1.843879        -2.561220        -0.300475
 H         0.909509        -3.031217         2.439095
 H         2.583796        -3.452620         2.056024
 H         2.290114        -1.889534         4.095440
 H         3.658525        -1.608964         3.008647
 H         2.638319         1.147897         1.411158
