19
Iteration:  4400
 C        -0.170325        -0.273633         0.193972
 C         1.275766        -0.512566         0.415102
 O         2.220295        -0.255968        -0.613190
 C         3.045321        -0.841437         0.404826
 C         1.922395        -1.994088         0.675162
 C         1.767202        -2.480602         2.116698
 C         2.580224        -1.651577         3.066121
 O         2.349882        -0.228892         2.797819
 C         2.378157         0.021272         1.476207
 H        -0.656191        -0.663427         1.118602
 H        -0.532692         0.760055         0.306925
 H        -0.645159        -0.627398        -0.743044
 H         4.120076        -0.861793         0.151580
 H         1.675342        -2.776416        -0.065092
 H         0.672809        -2.342617         2.190237
 H         2.028734        -3.449422         2.056138
 H         2.353178        -1.779738         4.116084
 H         3.662557        -1.997950         2.844612
 H         2.551670         1.078148         1.081236
