19
Iteration:  2981charge 0 multiplicity 1
 C        -0.192210        -0.297180         0.194420
 C         1.287846        -0.485995         0.482750
 O         2.249923        -0.122821        -0.647501
 C         3.051831        -0.858414         0.398420
 C         1.878420        -1.881729         0.636695
 C         1.845249        -2.472456         2.003872
 C         2.577014        -1.729770         3.070613
 O         2.315173        -0.356669         2.832651
 C         2.350531         0.066843         1.543129
 H        -0.764765        -0.781730         0.940298
 H        -0.602223         0.703923         0.055756
 H        -0.235715        -0.694667        -0.764031
 H         4.124542        -1.077464         0.208019
 H         1.657908        -2.723519        -0.032024
 H         0.809510        -2.576738         2.286853
 H         2.173637        -3.544204         2.045557
 H         2.113128        -2.016222         4.014025
 H         3.516005        -2.021936         3.132153
 H         2.519672         1.105803         1.379183
