19
Iteration:   499
 C        -0.085833         0.004201         0.440469
 C         1.255332        -0.636215         0.489062
 O         2.189726        -0.388180        -0.680846
 C         3.080005        -0.812667         0.330203
 C         2.052174        -1.954301         0.605614
 C         1.857366        -2.563548         2.012523
 C         2.418147        -1.668049         3.121987
 O         2.255576        -0.265254         2.779159
 C         2.298238         0.035400         1.401925
 H        -0.684544         0.165294         1.299660
 H         0.309154         0.964788         0.146525
 H        -0.635901        -0.465927        -0.342999
 H         4.083649        -0.803008         0.046472
 H         2.087528        -2.647635        -0.250502
 H         0.738922        -2.580687         2.208467
 H         2.288744        -3.565616         2.180594
 H         2.030125        -1.904392         4.160471
 H         3.548949        -1.841800         3.101271
 H         2.532076         1.056361         1.237641
