19
Iteration:  1037
 C        -0.190520        -0.107593         0.374395
 C         1.293656        -0.494211         0.501276
 O         2.288506        -0.320195        -0.674954
 C         3.063600        -0.918328         0.279025
 C         1.907990        -1.940621         0.569105
 C         1.880949        -2.554109         2.003915
 C         2.482861        -1.658644         3.146892
 O         2.184880        -0.246929         2.855440
 C         2.450640         0.066897         1.415584
 H        -0.710043        -0.382381         1.333612
 H        -0.253749         0.929991         0.048000
 H        -0.627774        -0.702667        -0.435965
 H         4.157282        -1.041977         0.096718
 H         1.501821        -2.629677        -0.218445
 H         0.838027        -2.893540         2.249317
 H         2.449212        -3.516042         2.077897
 H         2.265665        -1.853261         4.159277
 H         3.648176        -1.931261         3.097911
 H         2.420453         1.164350         1.404625
