19
Iteration:   825
 C        -0.186627        -0.092807         0.289165
 C         1.245918        -0.472316         0.425912
 O         2.250115        -0.232197        -0.634918
 C         3.015112        -0.916111         0.361558
 C         1.989137        -1.967701         0.644038
 C         1.888437        -2.644817         2.088563
 C         2.533290        -1.646585         3.085814
 O         2.258715        -0.280718         2.769496
 C         2.344075         0.021863         1.413890
 H        -0.601862        -0.315626         1.284615
 H        -0.168759         1.039359         0.282114
 H        -0.786482        -0.565983        -0.563573
 H         4.060359        -1.097596         0.352923
 H         1.763476        -2.724785        -0.170055
 H         0.730077        -2.532895         2.373307
 H         2.224063        -3.639902         2.163844
 H         2.174255        -1.711206         4.162707
 H         3.711753        -1.873003         3.116789
 H         2.732596         1.037712         1.315606
