19
Iteration:  4480charge 0 multiplicity 1
 C        -0.117565        -0.145511         0.452373
 C         1.289316        -0.626521         0.485726
 O         2.240738        -0.286133        -0.669464
 C         3.113128        -0.810107         0.259203
 C         2.015441        -1.963302         0.591820
 C         1.877288        -2.629895         2.046949
 C         2.370124        -1.594174         3.098413
 O         2.242417        -0.209408         2.820393
 C         2.338300         0.045030         1.370365
 H        -0.524912         0.132371         1.455834
 H        -0.184339         0.719407        -0.304656
 H        -0.950772        -0.857115         0.218100
 H         4.122459        -0.996798         0.119252
 H         1.951383        -2.717489        -0.229398
 H         0.826373        -2.934708         2.175382
 H         2.410467        -3.554507         2.125219
 H         1.821178        -1.637760         4.104010
 H         3.498773        -1.824176         3.313717
 H         2.600860         1.082643         1.130026
