19
Iteration:  4915
 C        -0.203246        -0.227884         0.211416
 C         1.225724        -0.495373         0.512992
 O         2.247999        -0.264085        -0.637218
 C         3.076532        -0.868132         0.396427
 C         1.935758        -1.878822         0.606336
 C         1.775918        -2.593569         2.010956
 C         2.590273        -1.673880         3.046998
 O         2.240323        -0.301145         2.882631
 C         2.416557         0.106269         1.480430
 H        -0.753811        -0.251142         1.154062
 H        -0.230665         0.832559        -0.268994
 H        -0.587869        -0.978605        -0.512119
 H         4.150980        -0.979009         0.308281
 H         1.823953        -2.409782        -0.304257
 H         0.736580        -2.689149         2.182280
 H         2.351429        -3.538883         2.121181
 H         2.402307        -2.065216         4.125302
 H         3.637817        -1.681495         2.796969
 H         2.775192         1.169506         1.473225
