19
Iteration:  4401
 C        -0.163435        -0.278247         0.196707
 C         1.276442        -0.509464         0.419214
 O         2.219140        -0.262091        -0.610180
 C         3.043754        -0.839489         0.414232
 C         1.925414        -1.981824         0.678080
 C         1.761473        -2.482480         2.104505
 C         2.573272        -1.646179         3.065970
 O         2.357189        -0.234562         2.792150
 C         2.386752         0.017817         1.474715
 H        -0.647895        -0.688161         1.138981
 H        -0.574492         0.765770         0.271079
 H        -0.679863        -0.643093        -0.733681
 H         4.074993        -0.857599         0.143666
 H         1.680065        -2.741117        -0.086902
 H         0.678663        -2.327311         2.201694
 H         2.039751        -3.455717         2.064412
 H         2.314547        -1.776878         4.129949
 H         3.666777        -1.971287         2.844875
 H         2.521347         1.069919         1.061854
