19
Iteration:   308
 C        -0.137956        -0.062909         0.335679
 C         1.275885        -0.563837         0.435332
 O         2.213395        -0.307436        -0.675687
 C         3.067481        -0.864603         0.433070
 C         1.972630        -2.005699         0.620267
 C         1.753276        -2.585703         2.055144
 C         2.508245        -1.640389         3.073772
 O         2.357195        -0.280796         2.780533
 C         2.355397         0.090914         1.403167
 H        -0.815988        -0.595296         1.051520
 H        -0.238475         0.995583         0.567473
 H        -0.649003        -0.355023        -0.534309
 H         4.136269        -0.995267         0.229489
 H         1.852702        -2.600903        -0.268233
 H         0.679838        -2.535434         2.263172
 H         2.234496        -3.641163         2.302345
 H         1.996621        -1.834051         3.988323
 H         3.573811        -1.829943         3.221481
 H         2.498584         1.175374         1.403045
