19
Iteration:   639charge 0 multiplicity 1
 C        -0.175391        -0.184808         0.267426
 C         1.267491        -0.454598         0.543535
 O         2.266079        -0.215111        -0.641870
 C         3.041627        -0.978692         0.366907
 C         1.876486        -1.941785         0.676596
 C         1.798796        -2.563492         2.045479
 C         2.513842        -1.681420         3.062427
 O         2.284721        -0.258757         2.800588
 C         2.442859         0.106981         1.403623
 H        -0.695654        -0.202907         1.240504
 H        -0.257073         0.834006        -0.180506
 H        -0.625885        -1.049563        -0.303097
 H         4.011471        -1.266618        -0.033639
 H         1.628447        -2.578525        -0.193915
 H         0.806955        -2.850909         2.279786
 H         2.389092        -3.522847         1.918959
 H         2.169186        -1.850488         4.131103
 H         3.677721        -1.871489         3.004487
 H         2.827244         1.109411         1.391547
