19
Iteration:   902charge 0 multiplicity 1
 C        -0.058656        -0.117010         0.327352
 C         1.256689        -0.658345         0.446012
 O         2.197062        -0.221453        -0.695757
 C         3.088030        -0.791875         0.427066
 C         2.004144        -2.008661         0.643036
 C         1.784608        -2.521154         2.042742
 C         2.511516        -1.692863         3.071227
 O         2.355051        -0.318987         2.817410
 C         2.228264         0.100785         1.430583
 H        -0.463812        -0.137821         1.297135
 H         0.104808         0.796163        -0.231606
 H        -0.818916        -0.664898        -0.221793
 H         4.063821        -0.785402         0.039667
 H         1.744482        -2.754122        -0.133672
 H         0.629512        -2.585926         2.249114
 H         2.010574        -3.538048         2.122437
 H         2.167632        -1.833079         4.126425
 H         3.491482        -1.970959         3.042455
 H         2.398543         1.177335         1.290967
