19
Iteration:  1385charge 0 multiplicity 1
 C        -0.209864        -0.091436         0.283106
 C         1.235229        -0.547949         0.459655
 O         2.309324        -0.235026        -0.598114
 C         2.995363        -0.956899         0.370579
 C         1.910051        -1.920062         0.666644
 C         1.877636        -2.635060         2.076960
 C         2.564257        -1.624270         3.082536
 O         2.227590        -0.251165         2.746686
 C         2.377298         0.047422         1.415242
 H        -0.876671        -0.720206         0.911156
 H        -0.187807         0.997613         0.401777
 H        -0.478320        -0.372567        -0.766617
 H         4.023838        -1.190240         0.209784
 H         1.816632        -2.651948        -0.143028
 H         0.839579        -2.763828         2.357224
 H         2.379289        -3.580058         1.981067
 H         2.352971        -1.764143         4.178760
 H         3.782721        -1.742091         3.003383
 H         2.687251         1.095875         1.417099
