19
Iteration:  3027
 C        -0.225138        -0.240242         0.197103
 C         1.231943        -0.586743         0.445733
 O         2.274474        -0.280491        -0.548587
 C         3.042621        -0.825892         0.509087
 C         1.982428        -1.872644         0.610979
 C         1.760335        -2.501985         1.892213
 C         2.583086        -1.694193         2.981397
 O         2.383934        -0.271630         2.909290
 C         2.252109         0.067190         1.498637
 H        -0.650770        -0.313667         1.146519
 H        -0.266355         0.811378        -0.085537
 H        -0.576284        -0.691638        -0.728421
 H         4.095944        -0.847123         0.281532
 H         1.935666        -2.396754        -0.326024
 H         0.761064        -2.656801         2.259077
 H         2.125203        -3.634162         1.991153
 H         2.416666        -2.111790         4.036309
 H         3.619062        -1.892396         2.788051
 H         2.411522         1.209128         1.437116
