19
Iteration:  4436
 C        -0.205236        -0.356193         0.324487
 C         1.296820        -0.520024         0.509713
 O         2.293097        -0.268777        -0.714562
 C         3.040289        -0.833397         0.359538
 C         1.956733        -1.875445         0.679835
 C         1.730733        -2.546193         1.980072
 C         2.356180        -1.684639         3.108596
 O         2.450534        -0.174277         2.817705
 C         2.445089         0.067253         1.416608
 H        -0.609271        -0.428443         1.393492
 H        -0.494054         0.642135        -0.157901
 H        -0.707154        -1.283607        -0.099618
 H         4.037364        -0.805420         0.084493
 H         1.608180        -2.522612        -0.149482
 H         0.696351        -2.768095         2.202645
 H         2.150143        -3.528000         2.119843
 H         1.940084        -1.758319         4.164814
 H         3.474011        -1.843483         3.197433
 H         2.504006         1.162395         1.228478
