19
Iteration:   748charge 0 multiplicity 1
 C        -0.213610        -0.254240         0.207183
 C         1.246031        -0.446562         0.445100
 O         2.354015        -0.200465        -0.651666
 C         2.935173        -0.949013         0.371801
 C         1.769234        -1.870351         0.646669
 C         1.799531        -2.502615         2.025369
 C         2.612913        -1.669481         3.107998
 O         2.349382        -0.270734         2.863795
 C         2.450964         0.015067         1.475641
 H        -0.659029        -0.847649         1.023817
 H        -0.650018         0.780785         0.301574
 H        -0.326932        -0.800744        -0.798663
 H         3.889252        -1.318407         0.096220
 H         1.561012        -2.554557        -0.199587
 H         0.761334        -2.646672         2.439631
 H         2.292555        -3.401018         1.959648
 H         2.282125        -1.892933         4.153935
 H         3.683753        -1.927629         3.011635
 H         2.647025         1.070842         1.446742
