19
Iteration:  3516
 C        -0.151769        -0.379401         0.335708
 C         1.298146        -0.597309         0.550768
 O         2.238476        -0.166172        -0.644732
 C         3.098603        -0.812678         0.396521
 C         1.970933        -1.958652         0.596376
 C         1.802494        -2.449198         1.926443
 C         2.303274        -1.665987         3.015624
 O         2.433773        -0.264477         2.856703
 C         2.377341         0.073114         1.522864
 H        -0.597237         0.077506         1.181215
 H        -0.201823         0.364424        -0.456666
 H        -0.822756        -1.067565        -0.209364
 H         4.052813        -0.972157        -0.083487
 H         1.805220        -2.567754        -0.326255
 H         0.759669        -2.685702         2.158611
 H         2.103383        -3.581247         2.037430
 H         1.811353        -1.659319         3.933760
 H         3.325648        -1.917200         3.184671
 H         2.562081         1.172860         1.248481
