19
Iteration:  1689charge 0 multiplicity 1
 C        -0.117061        -0.107528         0.310281
 C         1.274659        -0.510774         0.481735
 O         2.304894        -0.199109        -0.614023
 C         3.013464        -0.949283         0.384429
 C         1.913019        -2.017938         0.665962
 C         1.919198        -2.663073         2.002543
 C         2.481747        -1.634059         3.018568
 O         2.214477        -0.248403         2.793474
 C         2.310353         0.085927         1.437411
 H        -0.811152        -0.048331         1.151494
 H        -0.081022         1.002740         0.106516
 H        -0.753239        -0.751178        -0.330756
 H         4.074898        -1.043841         0.183457
 H         1.611038        -2.717242        -0.079963
 H         0.930048        -2.932613         2.373872
 H         2.714020        -3.476960         2.044837
 H         2.326013        -1.938152         4.084968
 H         3.497962        -1.732189         2.890316
 H         2.568269         1.148135         1.276720
