19
Iteration:  4892charge 0 multiplicity 1
 C        -0.093139        -0.100413         0.320043
 C         1.289472        -0.480066         0.457475
 O         2.233696        -0.254543        -0.688590
 C         3.074661        -0.898624         0.466573
 C         1.874658        -1.901380         0.683241
 C         1.916277        -2.662694         2.032401
 C         2.568003        -1.698124         3.029062
 O         2.186094        -0.257405         2.744202
 C         2.288552         0.059258         1.479752
 H        -0.626829        -0.652025         1.107854
 H        -0.363833         1.028470         0.303883
 H        -0.351419        -0.560380        -0.658754
 H         4.160690        -1.156248         0.353539
 H         1.604927        -2.516900        -0.136330
 H         0.978783        -3.018434         2.268615
 H         2.649774        -3.502528         1.969750
 H         2.011616        -1.868827         3.964467
 H         3.667219        -1.728219         3.157743
 H         2.459667         1.141686         1.339058
