19
Iteration:  2953
 C        -0.218008        -0.192800         0.320964
 C         1.296281        -0.554628         0.439979
 O         2.266814        -0.210129        -0.591239
 C         3.103271        -0.853141         0.471291
 C         1.926677        -1.934444         0.597316
 C         1.836403        -2.665659         1.897337
 C         2.469198        -1.678738         3.010660
 O         2.276635        -0.199800         2.834650
 C         2.338432         0.108205         1.519471
 H        -0.697647        -0.780691         1.170640
 H        -0.360129         0.912632         0.364827
 H        -0.551492        -0.496280        -0.773018
 H         4.155870        -0.987726         0.259068
 H         1.912763        -2.736097        -0.176200
 H         0.807612        -3.090558         2.106937
 H         2.447926        -3.601304         2.009791
 H         2.285182        -1.862582         4.117073
 H         3.678932        -1.978164         2.862225
 H         2.529498         1.230449         1.268093
