19
Iteration:  2729charge 0 multiplicity 1
 C        -0.174290        -0.046095         0.362581
 C         1.296176        -0.628701         0.445947
 O         2.223182        -0.274486        -0.668960
 C         3.123570        -0.812135         0.412529
 C         2.018931        -1.928949         0.605510
 C         1.907492        -2.622429         1.983305
 C         2.456339        -1.680372         3.077161
 O         2.256739        -0.277034         2.826693
 C         2.233257         0.038421         1.437070
 H        -0.735264        -0.363422         1.309044
 H        -0.057522         1.037838         0.478307
 H        -0.457010        -0.209862        -0.677991
 H         4.281137        -0.682349         0.383418
 H         1.986969        -2.686984        -0.213975
 H         0.867643        -2.781613         1.980263
 H         2.349532        -3.675893         1.904983
 H         1.838906        -1.981756         3.975374
 H         3.457324        -1.984010         3.314988
 H         2.383740         1.101552         1.315623
