19
Iteration:  4894
 C        -0.098587        -0.107590         0.315324
 C         1.306851        -0.476372         0.463712
 O         2.230906        -0.261504        -0.682200
 C         3.080517        -0.891535         0.471722
 C         1.876067        -1.891576         0.700425
 C         1.918006        -2.653797         2.037981
 C         2.573246        -1.699235         2.996527
 O         2.184080        -0.253546         2.751635
 C         2.292219         0.059086         1.491266
 H        -0.618383        -0.657612         1.071256
 H        -0.360528         0.984028         0.208676
 H        -0.369230        -0.606889        -0.633306
 H         4.106934        -1.173515         0.274672
 H         1.556380        -2.544483        -0.088478
 H         0.906872        -2.954175         2.232236
 H         2.656514        -3.470273         1.884782
 H         2.005708        -1.907782         3.987097
 H         3.602291        -1.856581         3.126272
 H         2.424801         1.152580         1.286979
