19
Iteration:    28
 C        -0.125701        -0.180735         0.278553
 C         1.343331        -0.398659         0.491032
 O         2.294786        -0.278871        -0.651655
 C         2.969221        -1.109780         0.365821
 C         1.734066        -1.892654         0.641990
 C         1.788428        -2.557457         2.019904
 C         2.588469        -1.563622         3.051030
 O         2.239552        -0.217440         2.844833
 C         2.472401         0.027297         1.489036
 H        -0.840418        -0.938204         0.768646
 H        -0.479898         0.835207         0.566274
 H        -0.309201        -0.363958        -0.821997
 H         3.997551        -1.306721        -0.029479
 H         1.474394        -2.592353        -0.217087
 H         0.751479        -2.949413         2.511241
 H         2.397001        -3.480843         1.920166
 H         2.473741        -1.747037         4.159476
 H         3.791219        -1.689752         2.775459
 H         2.883257         1.074793         1.416676
