19
Iteration:  4130charge 0 multiplicity 1
 C        -0.142076        -0.163627         0.297653
 C         1.276270        -0.538955         0.425669
 O         2.284967        -0.317644        -0.663303
 C         3.035650        -0.971444         0.405672
 C         1.875867        -1.951597         0.680956
 C         1.924332        -2.495095         2.085372
 C         2.603910        -1.576276         3.037887
 O         2.220053        -0.250520         2.789891
 C         2.248288         0.032704         1.447986
 H        -0.937423        -0.709302         0.798282
 H        -0.225864         0.846682         0.585405
 H        -0.454116        -0.085928        -0.734125
 H         4.078237        -1.078020         0.430258
 H         1.589209        -2.583329        -0.143417
 H         1.044590        -2.872216         2.560855
 H         2.374408        -3.471323         1.892935
 H         2.271420        -1.724581         4.087430
 H         3.728628        -1.591539         2.739731
 H         2.515449         1.116941         1.366730
