19
Iteration:   643charge 0 multiplicity 1
 C        -0.150621        -0.174199         0.295644
 C         1.251831        -0.497702         0.579176
 O         2.287694        -0.221739        -0.622671
 C         3.005595        -1.002142         0.316200
 C         1.865148        -1.875450         0.715697
 C         1.845655        -2.559217         1.994890
 C         2.492449        -1.666922         3.061643
 O         2.261649        -0.254850         2.771244
 C         2.444026         0.095521         1.407758
 H        -0.595934        -0.254932         1.281627
 H        -0.253959         0.723354        -0.295539
 H        -0.572573        -0.980575        -0.268541
 H         4.068718        -1.306631         0.200590
 H         1.695305        -2.549329        -0.129153
 H         0.768384        -2.890932         2.296059
 H         2.295843        -3.659067         1.806189
 H         2.189628        -1.779858         4.123258
 H         3.644633        -1.830494         2.966000
 H         2.853126         1.110787         1.376014
