19
Iteration:  1497
 C        -0.163834        -0.141452         0.310031
 C         1.264691        -0.568933         0.461454
 O         2.203038        -0.269161        -0.631632
 C         3.080152        -0.859883         0.458128
 C         1.978985        -1.937669         0.656010
 C         1.803561        -2.534766         2.054632
 C         2.549367        -1.689760         3.046849
 O         2.264458        -0.317810         2.747971
 C         2.363039         0.097647         1.427282
 H        -0.688562         0.127269         1.258958
 H        -0.258875         0.825630        -0.280838
 H        -0.598301        -0.939376        -0.372334
 H         4.180630        -1.087088         0.217860
 H         1.947688        -2.646527        -0.255136
 H         0.749087        -2.582154         2.299258
 H         2.222931        -3.496106         2.013101
 H         2.139122        -1.828513         4.039889
 H         3.691720        -1.766660         3.193214
 H         2.554624         1.188212         1.237319
