19
Iteration:  3407
 C        -0.230710        -0.125518         0.120987
 C         1.247854        -0.567247         0.451823
 O         2.296494        -0.218637        -0.704598
 C         3.023771        -0.785492         0.464438
 C         1.897469        -1.908301         0.668134
 C         1.866239        -2.604739         2.114182
 C         2.676451        -1.710082         3.046949
 O         2.270298        -0.335515         2.879425
 C         2.287225         0.041701         1.476512
 H        -0.962023        -0.576803         0.761253
 H        -0.321265         0.923812         0.388933
 H        -0.566546        -0.267793        -0.926698
 H         4.081668        -0.915402         0.381913
 H         1.750907        -2.624782        -0.188094
 H         0.833368        -2.657318         2.613336
 H         2.338133        -3.667639         1.951132
 H         2.287368        -2.021444         4.056712
 H         3.859328        -1.819353         2.865553
 H         2.345875         1.196744         1.369172
