19
Iteration:  1895charge 0 multiplicity 1
 C        -0.131353        -0.075467         0.262176
 C         1.299338        -0.485830         0.440292
 O         2.189251        -0.281763        -0.619292
 C         3.133157        -0.953054         0.384066
 C         1.910790        -1.914616         0.653836
 C         1.913818        -2.602425         2.032806
 C         2.554895        -1.716876         3.012586
 O         2.135774        -0.311360         2.862526
 C         2.322749         0.112610         1.442901
 H        -0.597642        -0.147981         1.265180
 H        -0.079615         1.019486         0.011815
 H        -0.641615        -0.697860        -0.508833
 H         4.177183        -1.180273         0.178721
 H         1.685224        -2.523168        -0.279606
 H         0.746819        -2.804538         2.388145
 H         2.606991        -3.514102         2.045692
 H         2.504595        -1.855625         4.176027
 H         3.639708        -1.601166         2.961066
 H         2.641385         1.207613         1.311894
