19
Iteration:  4685charge 0 multiplicity 1
 C        -0.103605        -0.020698         0.420687
 C         1.326170        -0.550911         0.437472
 O         2.196241        -0.323243        -0.728788
 C         3.072852        -0.858804         0.389302
 C         2.014274        -2.013005         0.603602
 C         1.976861        -2.640742         2.026645
 C         2.487032        -1.666494         3.081715
 O         2.080932        -0.258778         2.854991
 C         2.304291         0.093708         1.383197
 H        -0.296015         0.239475         1.443936
 H        -0.141087         0.866276        -0.197170
 H        -0.875263        -0.630167         0.024983
 H         4.174121        -1.008894         0.218965
 H         1.775414        -2.678405        -0.213738
 H         0.888153        -2.922227         2.273086
 H         2.651881        -3.511733         1.909237
 H         2.117839        -2.009027         4.084689
 H         3.650511        -1.519089         3.052089
 H         2.609539         1.153630         1.453788
