19
Iteration:  2677charge 0 multiplicity 1
 C        -0.161093        -0.290364         0.200949
 C         1.300683        -0.479417         0.544201
 O         2.234371        -0.179245        -0.647361
 C         2.992657        -0.850563         0.413275
 C         1.904673        -1.851999         0.601323
 C         1.815212        -2.550263         2.032265
 C         2.539105        -1.738463         3.012789
 O         2.184751        -0.325816         2.834832
 C         2.535179         0.110743         1.557665
 H        -0.673140        -0.148818         1.217505
 H        -0.228549         0.682009        -0.356859
 H        -0.423412        -1.175591        -0.502510
 H         4.040110        -1.169322         0.128209
 H         1.686198        -2.512310        -0.272142
 H         0.659434        -2.703072         2.134363
 H         2.212246        -3.498617         1.987007
 H         2.241522        -1.931928         4.107961
 H         3.708081        -2.007575         2.923349
 H         2.884197         1.144543         1.473965
