19
Iteration:  2482charge 0 multiplicity 1
 C        -0.220819        -0.305368         0.228324
 C         1.261610        -0.464988         0.511495
 O         2.418581        -0.083783        -0.591800
 C         3.078378        -0.953158         0.456098
 C         1.799856        -1.886163         0.610356
 C         1.777148        -2.500959         1.953805
 C         2.507428        -1.678823         2.978181
 O         2.352289        -0.281172         2.837504
 C         2.321210         0.006719         1.508768
 H        -0.686485        -0.329984         1.203429
 H        -0.535444         0.641460        -0.197882
 H        -0.730560        -1.194739        -0.200609
 H         4.115934        -1.021883         0.275234
 H         1.460778        -2.653090        -0.135615
 H         0.845830        -2.926914         2.330174
 H         2.501539        -3.432485         1.975928
 H         2.213264        -1.926824         4.053854
 H         3.535053        -2.151849         2.724746
 H         2.588919         1.029543         1.262824
