19
Iteration:  4686charge 0 multiplicity 1
 C        -0.102177        -0.018229         0.421394
 C         1.330237        -0.551943         0.434956
 O         2.196554        -0.321497        -0.712364
 C         3.064795        -0.860773         0.387011
 C         2.011933        -2.009430         0.610239
 C         1.979932        -2.632162         2.028900
 C         2.487962        -1.660971         3.078624
 O         2.083554        -0.263137         2.854143
 C         2.303918         0.080645         1.372349
 H        -0.302027         0.234250         1.423639
 H        -0.115215         0.855203        -0.233592
 H        -0.855429        -0.641831         0.018318
 H         4.120052        -1.002886         0.207589
 H         1.781983        -2.640377        -0.239235
 H         0.857611        -2.960393         2.247256
 H         2.670484        -3.460935         1.920475
 H         2.126055        -2.038599         4.075138
 H         3.632668        -1.504401         3.042007
 H         2.607525         1.132630         1.450026
