19
Iteration:   421
 C        -0.189543        -0.181852         0.241815
 C         1.281983        -0.531326         0.433606
 O         2.197889        -0.221434        -0.667908
 C         3.076380        -0.888188         0.421321
 C         1.917521        -1.916757         0.701177
 C         1.707845        -2.521448         2.050126
 C         2.560635        -1.660088         3.038307
 O         2.357980        -0.299956         2.792489
 C         2.417487         0.015247         1.504139
 H        -0.583918         0.117674         1.185725
 H        -0.268545         0.665554        -0.452323
 H        -0.682318        -1.062142        -0.259408
 H         4.177780        -1.023453         0.249894
 H         1.751245        -2.636410        -0.163138
 H         0.633101        -2.504580         2.380048
 H         2.061644        -3.600445         2.216970
 H         2.364875        -1.860591         4.133085
 H         3.755745        -1.861581         2.816861
 H         2.562822         1.110671         1.397471
