19
Iteration:   526
 C        -0.144506        -0.094307         0.362332
 C         1.268515        -0.494191         0.388761
 O         2.242792        -0.250810        -0.703552
 C         3.046925        -0.967600         0.452496
 C         1.871597        -1.934928         0.654125
 C         1.916152        -2.657876         2.079112
 C         2.459745        -1.649040         3.075326
 O         2.284398        -0.225646         2.774841
 C         2.351417         0.056324         1.409550
 H        -0.760009        -0.514105         1.239613
 H        -0.133757         1.056425         0.437146
 H        -0.675589        -0.346374        -0.611843
 H         4.139169        -1.222077         0.155691
 H         1.779548        -2.628511        -0.191513
 H         0.892163        -2.923772         2.429156
 H         2.472807        -3.603237         2.083614
 H         2.076140        -1.858690         4.060950
 H         3.662655        -1.771270         3.063872
 H         2.803859         1.124717         1.312497
