19
Iteration:  4199
 C        -0.211923        -0.148754         0.222765
 C         1.207397        -0.496153         0.380764
 O         2.254980        -0.357771        -0.700760
 C         3.049573        -0.869231         0.431837
 C         1.930885        -1.937609         0.703401
 C         1.873939        -2.639198         2.059775
 C         2.607170        -1.634958         3.112527
 O         2.332436        -0.228631         2.823552
 C         2.286373         0.114064         1.488751
 H        -0.597173         0.069656         1.203582
 H        -0.202355         0.813163        -0.362772
 H        -0.926962        -0.794151        -0.317085
 H         4.147158        -0.922861         0.090746
 H         1.651158        -2.626669        -0.125452
 H         0.874259        -3.043507         2.333450
 H         2.425769        -3.518829         2.174351
 H         2.024244        -1.756997         4.046313
 H         3.714167        -1.844668         3.058798
 H         2.505711         1.136729         1.320471
