19
Iteration:  3677charge 0 multiplicity 1
 C        -0.210966        -0.299082         0.355606
 C         1.305833        -0.569824         0.427339
 O         2.240258        -0.172348        -0.618571
 C         3.058150        -0.853870         0.384093
 C         1.996746        -1.931304         0.599403
 C         1.806227        -2.490115         1.988130
 C         2.432991        -1.679602         3.088743
 O         2.372484        -0.209988         2.810556
 C         2.353384         0.005096         1.424711
 H        -0.652299        -1.102518         0.935090
 H        -0.401373         0.778857         0.571103
 H        -0.415807        -0.199967        -0.735730
 H         4.200153        -0.989892         0.242744
 H         1.862874        -2.812539        -0.084752
 H         0.776967        -2.441472         2.175442
 H         2.030502        -3.521725         2.196349
 H         1.891391        -1.836421         4.017137
 H         3.424089        -2.170081         3.362556
 H         2.509963         1.033423         1.214651
