19
Iteration:   741
 C        -0.225819        -0.225206         0.238915
 C         1.278984        -0.399370         0.446734
 O         2.306459        -0.203888        -0.679486
 C         3.010034        -0.973308         0.337293
 C         1.804788        -1.916424         0.591085
 C         1.785854        -2.531729         2.077703
 C         2.591580        -1.677584         3.090207
 O         2.350013        -0.265033         2.913314
 C         2.429732         0.073459         1.494919
 H        -0.677044        -0.855324         1.024054
 H        -0.632684         0.762157         0.017064
 H        -0.457143        -0.672049        -0.723166
 H         4.022525        -1.380525         0.158804
 H         1.559451        -2.750687        -0.103072
 H         0.815689        -2.868307         2.324808
 H         2.236185        -3.595214         1.968989
 H         2.285114        -1.823861         4.145839
 H         3.639451        -1.874394         3.001219
 H         2.541674         1.161935         1.310601
