19
Iteration:   718charge 0 multiplicity 1
 C        -0.118733        -0.104987         0.293945
 C         1.271906        -0.578258         0.505564
 O         2.159765        -0.278665        -0.620043
 C         3.041061        -0.849037         0.420662
 C         1.981219        -1.931075         0.682505
 C         1.802149        -2.571054         2.002475
 C         2.504200        -1.666207         3.034245
 O         2.306240        -0.262700         2.780673
 C         2.411559         0.029959         1.433896
 H        -0.643632        -0.267306         1.237310
 H        -0.017719         0.924935        -0.060454
 H        -0.592937        -0.586318        -0.571750
 H         4.027226        -1.033917         0.051891
 H         1.836752        -2.605928        -0.187225
 H         0.771562        -2.715511         2.177154
 H         2.174100        -3.620415         2.115529
 H         2.146841        -1.812177         4.086779
 H         3.553839        -1.894289         2.958280
 H         2.500338         1.108819         1.330393
