19
Iteration:   813charge 0 multiplicity 1
 C        -0.126111        -0.032595         0.306411
 C         1.249178        -0.591560         0.438654
 O         2.183116        -0.279276        -0.662395
 C         3.077107        -0.875532         0.472848
 C         1.975944        -1.952205         0.624292
 C         1.845506        -2.496217         2.065873
 C         2.586032        -1.694404         3.110954
 O         2.311551        -0.321490         2.758177
 C         2.277788         0.016021         1.413824
 H        -0.779668        -0.489339         1.056180
 H        -0.278946         1.050950         0.202743
 H        -0.535727        -0.472281        -0.648524
 H         4.057711        -0.999319         0.059515
 H         2.092513        -2.648912        -0.220515
 H         0.667535        -2.435517         2.312906
 H         1.964948        -3.534442         2.114643
 H         2.098898        -1.898156         4.100634
 H         3.757267        -1.760845         3.211993
 H         2.351236         1.102347         1.267926
