19
Iteration:  3247charge 0 multiplicity 1
 C        -0.143298        -0.080640         0.277061
 C         1.278824        -0.488615         0.463394
 O         2.217057        -0.210458        -0.629756
 C         3.026275        -0.881866         0.380046
 C         1.946046        -1.933364         0.651064
 C         1.972790        -2.721628         2.037418
 C         2.531280        -1.684506         3.038554
 O         2.170671        -0.302050         2.822993
 C         2.301030         0.087135         1.456391
 H        -0.728695        -0.427827         1.121190
 H        -0.182248         1.022483         0.161615
 H        -0.548462        -0.694698        -0.597096
 H         4.094679        -1.018236         0.395317
 H         1.864367        -2.521545        -0.245183
 H         0.951487        -3.019996         2.238276
 H         2.762334        -3.515032         1.804490
 H         2.213643        -1.916390         4.124701
 H         3.658740        -1.608497         3.051395
 H         2.679633         1.130727         1.392161
