19
Iteration:  2135charge 0 multiplicity 1
 C        -0.209145        -0.156394         0.230039
 C         1.272503        -0.570271         0.462499
 O         2.220571        -0.233314        -0.623222
 C         3.074761        -0.746364         0.379501
 C         2.052448        -1.953350         0.565555
 C         1.735311        -2.510756         2.094259
 C         2.497562        -1.697822         3.101318
 O         2.365142        -0.342192         2.832597
 C         2.363717        -0.021133         1.507063
 H        -0.745772        -0.217886         1.135088
 H        -0.235531         0.867479        -0.070180
 H        -0.733923        -0.812220        -0.473154
 H         4.041136        -0.723847         0.002936
 H         1.852388        -2.650375        -0.311245
 H         0.687344        -2.153308         2.138859
 H         1.934960        -3.600199         1.825551
 H         2.237310        -1.880117         4.207814
 H         3.554141        -2.027697         2.889022
 H         2.529685         1.064374         1.413389
