19
Iteration:  4857charge 0 multiplicity 1
 C        -0.168342         0.002798         0.388121
 C         1.278369        -0.597397         0.457346
 O         2.212199        -0.250443        -0.684179
 C         3.124811        -0.950171         0.290700
 C         2.052089        -1.976701         0.601690
 C         1.964528        -2.575863         1.973847
 C         2.434308        -1.649275         3.116316
 O         2.192485        -0.244116         2.824203
 C         2.261321        -0.014179         1.457626
 H        -0.987642        -0.693332         0.834114
 H        -0.209538         1.015886         0.906906
 H        -0.513342         0.058074        -0.678501
 H         4.276135        -1.069662         0.171892
 H         1.960888        -2.739593        -0.207455
 H         0.993056        -2.782357         2.436500
 H         2.539506        -3.509160         2.143958
 H         2.024971        -1.966196         4.029078
 H         3.564387        -1.537060         3.383122
 H         2.441184         1.052312         1.489753
