19
Iteration:   389
 C        -0.178958        -0.019823         0.253983
 C         1.204008        -0.601248         0.421750
 O         2.234639        -0.335238        -0.705751
 C         3.066918        -0.807958         0.367731
 C         2.013455        -1.962890         0.676261
 C         1.753762        -2.527522         2.068725
 C         2.594926        -1.719432         3.102031
 O         2.397016        -0.290674         2.814348
 C         2.263305         0.007118         1.491768
 H        -0.788627        -0.147017         1.127665
 H        -0.108769         1.058372        -0.008615
 H        -0.812275        -0.421246        -0.611936
 H         4.172795        -0.797581         0.315718
 H         2.013190        -2.752245        -0.155392
 H         0.679097        -2.335007         2.299541
 H         1.833152        -3.645303         2.234123
 H         2.326016        -1.860096         4.185209
 H         3.668899        -1.847944         3.032094
 H         2.240069         1.124436         1.438706
