19
Iteration:  3422
 C        -0.193903        -0.045082         0.262901
 C         1.166450        -0.557558         0.420310
 O         2.357139        -0.207513        -0.582934
 C         3.061246        -0.887569         0.458854
 C         1.924951        -2.003490         0.653577
 C         1.951011        -2.616729         2.042101
 C         2.640671        -1.688003         3.042368
 O         2.219084        -0.268228         2.770134
 C         2.161239         0.029594         1.420346
 H        -0.829144        -0.632950         0.983071
 H        -0.253967         1.049349         0.430346
 H        -0.421732        -0.179319        -0.825861
 H         4.188080        -0.943449         0.351887
 H         1.789051        -2.729217        -0.151947
 H         0.849392        -2.943447         2.298766
 H         2.356812        -3.569930         2.093089
 H         2.429667        -1.805511         4.176853
 H         3.721422        -1.746226         2.949565
 H         2.342379         1.126820         1.278294
