19
Iteration:  2562
 C        -0.205167        -0.104469         0.360554
 C         1.297100        -0.495220         0.360468
 O         2.323790        -0.192097        -0.659720
 C         3.005244        -0.940912         0.441495
 C         1.938804        -1.914822         0.653262
 C         1.933684        -2.615632         1.921855
 C         2.476225        -1.635930         3.071681
 O         2.200105        -0.298496         2.834077
 C         2.347953        -0.006017         1.460229
 H        -0.809852        -0.641732         1.137054
 H        -0.465239         0.960767         0.585267
 H        -0.742025        -0.297503        -0.581327
 H         4.094539        -1.106689         0.333395
 H         1.869706        -2.596055        -0.241254
 H         1.034176        -2.954185         2.254563
 H         2.721046        -3.439968         2.038469
 H         1.972059        -1.936437         4.047255
 H         3.621989        -1.854699         3.168163
 H         2.726971         1.063038         1.414683
