19
Iteration:   470
 C        -0.136200        -0.116315         0.366253
 C         1.303126        -0.469771         0.383747
 O         2.245094        -0.262309        -0.623723
 C         3.078356        -0.924134         0.364950
 C         1.907142        -1.947994         0.621030
 C         1.800833        -2.560803         2.053997
 C         2.464821        -1.673389         3.130641
 O         2.285165        -0.288758         2.771865
 C         2.355843         0.039022         1.384417
 H        -0.427130         0.162174         1.439525
 H        -0.389453         0.771993        -0.273084
 H        -0.625927        -1.070845         0.109531
 H         4.169119        -0.922593         0.173444
 H         1.862066        -2.676773        -0.178546
 H         0.768797        -2.801075         2.354552
 H         2.421984        -3.402659         2.097284
 H         2.179865        -1.837233         4.159039
 H         3.517563        -1.860052         3.054237
 H         2.682820         1.083092         1.213494
