19
Iteration:  3355
 C        -0.240444        -0.369011         0.200327
 C         1.258994        -0.552863         0.416366
 O         2.332063        -0.061620        -0.583553
 C         3.012185        -0.818303         0.445536
 C         1.938988        -1.911188         0.582926
 C         1.707930        -2.511001         2.060712
 C         2.556496        -1.690585         3.072311
 O         2.452669        -0.303964         2.820269
 C         2.319808         0.035565         1.512301
 H        -0.767561        -0.593709         1.125023
 H        -0.579649         0.621815        -0.147851
 H        -0.529016        -0.961390        -0.731839
 H         4.080189        -1.006509         0.378620
 H         1.697789        -2.592511        -0.233632
 H         0.637659        -2.773776         2.331048
 H         2.053333        -3.459764         1.933176
 H         2.189448        -1.938654         4.125466
 H         3.494299        -1.976429         2.825509
 H         2.464981         1.137002         1.311443
