19
Iteration:  3851charge 0 multiplicity 1
 C        -0.202399        -0.277503         0.332705
 C         1.314314        -0.462634         0.487440
 O         2.259363        -0.224830        -0.676809
 C         3.085552        -0.853234         0.358316
 C         2.004911        -1.965357         0.676690
 C         1.750224        -2.569275         2.090734
 C         2.470159        -1.641735         3.036282
 O         2.300836        -0.239354         2.802002
 C         2.391192         0.091358         1.391558
 H        -0.644034        -0.712326         1.190603
 H        -0.445529         0.782171         0.457002
 H        -0.512161        -0.841944        -0.565023
 H         4.166076        -1.105951         0.093549
 H         1.780164        -2.741999        -0.071318
 H         0.620173        -2.770730         2.344726
 H         2.176536        -3.673384         2.114843
 H         2.037967        -1.900850         3.977571
 H         3.484333        -1.779064         2.914585
 H         2.543888         1.108842         1.238718
