19
Iteration:  4709
 C        -0.190569        -0.048241         0.272203
 C         1.270950        -0.563865         0.562430
 O         2.237388        -0.194809        -0.622401
 C         3.095648        -0.948983         0.402677
 C         1.894948        -1.983250         0.605719
 C         2.026091        -2.648137         2.012412
 C         2.541064        -1.640891         3.065368
 O         2.156451        -0.273341         2.757807
 C         2.324470         0.036572         1.454225
 H        -0.581780         0.309330         1.177570
 H        -0.106984         0.792600        -0.436516
 H        -0.903438        -0.717497        -0.159988
 H         4.089779        -1.211187         0.248790
 H         1.600559        -2.767772        -0.082782
 H         0.948298        -2.922682         2.404676
 H         2.665499        -3.459559         1.768309
 H         2.111047        -1.716174         4.096654
 H         3.704665        -1.585918         3.100687
 H         2.549150         1.117631         1.400142
