19
Iteration:  1226
 C        -0.265663        -0.053193         0.335330
 C         1.199763        -0.560669         0.374866
 O         2.249146        -0.261703        -0.695873
 C         3.130614        -0.934965         0.441219
 C         2.058000        -2.049540         0.664359
 C         1.873035        -2.546728         2.022031
 C         2.502837        -1.668486         3.039959
 O         2.271516        -0.196171         2.874902
 C         2.349696         0.024594         1.427979
 H        -0.821171        -0.611519         1.073293
 H        -0.177387         1.007280         0.477675
 H        -0.761150        -0.216900        -0.612748
 H         4.158231        -0.949743        -0.043786
 H         1.887981        -2.707000        -0.183468
 H         0.793703        -2.588150         2.291936
 H         2.014798        -3.681710         2.209532
 H         2.163340        -1.976876         3.993144
 H         3.544711        -1.763727         3.031768
 H         2.622891         1.070951         1.413417
