19
Iteration:   150charge 0 multiplicity 1
 C        -0.200405        -0.131793         0.307712
 C         1.285945        -0.433155         0.555917
 O         2.305104        -0.311106        -0.634969
 C         3.018357        -0.993742         0.415139
 C         1.850821        -1.936049         0.631811
 C         1.844022        -2.527974         1.988695
 C         2.509753        -1.614314         2.970841
 O         2.292071        -0.240408         2.825442
 C         2.459600         0.046912         1.412807
 H        -0.679978        -0.566664         1.185256
 H        -0.452700         0.943321         0.316034
 H        -0.694733        -0.872938        -0.442989
 H         4.099652        -1.207152         0.301172
 H         1.726125        -2.737655        -0.127987
 H         0.671844        -2.648475         2.190690
 H         2.166257        -3.600264         2.064855
 H         2.089757        -1.970645         3.964950
 H         3.566102        -1.786433         3.004145
 H         2.674655         1.146126         1.284933
