19
Iteration:   763charge 0 multiplicity 1
 C        -0.217276        -0.291819         0.179451
 C         1.244032        -0.452804         0.510737
 O         2.266115        -0.190664        -0.585234
 C         3.081295        -0.976866         0.483697
 C         1.799978        -1.840797         0.661363
 C         1.788934        -2.453633         2.072409
 C         2.605252        -1.677310         2.996117
 O         2.381656        -0.316331         2.771782
 C         2.386837         0.031307         1.434257
 H        -0.836297        -0.946518         0.823395
 H        -0.446674         0.783976         0.228565
 H        -0.588864        -0.441857        -0.829896
 H         4.188905        -1.122813         0.494202
 H         1.443601        -2.583208        -0.105265
 H         0.809533        -2.568657         2.387205
 H         1.985846        -3.572895         1.962774
 H         2.242239        -1.871655         4.019535
 H         3.621673        -1.821280         2.990502
 H         2.885745         0.993126         1.175666
