19
Iteration:  1881
 C        -0.185042        -0.107806         0.283538
 C         1.285397        -0.451724         0.531584
 O         2.321047        -0.249057        -0.691951
 C         3.000785        -0.941455         0.385972
 C         1.879864        -1.887601         0.733375
 C         1.928598        -2.653084         2.029462
 C         2.546087        -1.631423         3.036665
 O         2.131969        -0.293071         2.781946
 C         2.421136         0.072563         1.473318
 H        -0.775042        -0.278867         1.186423
 H        -0.262247         0.923098        -0.040093
 H        -0.585323        -0.741455        -0.483545
 H         4.004343        -1.225432         0.070050
 H         1.632636        -2.571459        -0.122003
 H         0.884427        -3.209635         2.283674
 H         2.668245        -3.568116         1.766055
 H         2.219788        -1.936424         4.041268
 H         3.698515        -1.830979         2.852315
 H         2.674275         1.113606         1.505935
