19
Iteration:  3062
 C        -0.179876        -0.158400         0.284635
 C         1.266896        -0.454503         0.439807
 O         2.291371        -0.149246        -0.602394
 C         3.074471        -0.869664         0.315955
 C         1.981062        -1.890677         0.680523
 C         1.878663        -2.640945         2.074802
 C         2.566763        -1.679579         3.093774
 O         2.090380        -0.373760         2.793546
 C         2.399191         0.025563         1.433275
 H        -0.770530        -0.313911         1.168644
 H        -0.244059         0.884113         0.037975
 H        -0.800120        -0.850819        -0.315652
 H         4.083096        -0.976140        -0.074401
 H         1.763757        -2.518873        -0.164354
 H         0.787623        -2.824027         2.192247
 H         2.666876        -3.531692         2.098082
 H         2.219386        -1.975616         4.100711
 H         3.582956        -1.820157         2.946406
 H         2.686942         1.104360         1.265771
