19
Iteration:  1641charge 0 multiplicity 1
 C        -0.145371        -0.237401         0.330053
 C         1.287636        -0.519354         0.455971
 O         2.265772        -0.233798        -0.718716
 C         3.117406        -0.774535         0.395595
 C         1.988879        -1.900893         0.632252
 C         1.689360        -2.564190         2.063715
 C         2.482239        -1.689405         3.044694
 O         2.352019        -0.305582         2.805390
 C         2.328989         0.063041         1.447911
 H        -0.723639        -0.524491         1.295597
 H        -0.555354         0.799147         0.199174
 H        -0.627032        -0.931422        -0.420080
 H         4.218757        -0.979264         0.342687
 H         1.895349        -2.674637        -0.232002
 H         0.653762        -2.460243         2.437875
 H         2.041167        -3.558593         2.165007
 H         2.144646        -1.840734         4.108459
 H         3.550314        -2.083115         2.974501
 H         2.467627         1.148680         1.477591
