19
Iteration:  1117charge 0 multiplicity 1
 C        -0.140753        -0.163055         0.249530
 C         1.246475        -0.599020         0.366413
 O         2.094579        -0.230358        -0.657588
 C         3.143324        -0.811478         0.484382
 C         2.030029        -1.984500         0.647795
 C         1.705003        -2.494323         2.059877
 C         2.533169        -1.702360         3.025088
 O         2.357756        -0.284833         2.867085
 C         2.372852         0.061333         1.437086
 H        -0.752859        -0.266186         1.192954
 H        -0.169580         0.884425        -0.168259
 H        -0.707525        -0.845561        -0.455051
 H         4.260129        -0.851330         0.295041
 H         2.107694        -2.738816        -0.126133
 H         0.677686        -2.439095         2.313229
 H         2.047598        -3.582882         2.147311
 H         2.133094        -1.873034         4.056641
 H         3.741598        -2.043131         2.904557
 H         2.674399         1.109070         1.430745
