19
Iteration:  4426
 C        -0.209848        -0.408789         0.356732
 C         1.286756        -0.482016         0.541403
 O         2.271868        -0.269401        -0.747939
 C         3.111670        -0.864535         0.408184
 C         1.927667        -1.915497         0.661595
 C         1.720128        -2.517110         2.049009
 C         2.434412        -1.693460         3.064896
 O         2.447250        -0.194005         2.808557
 C         2.374650         0.176025         1.445717
 H        -0.937889        -0.389338         1.213472
 H        -0.437817         0.630574        -0.138783
 H        -0.590728        -0.997852        -0.545461
 H         4.138924        -1.147933         0.291128
 H         1.650086        -2.658912        -0.122754
 H         0.651514        -2.552012         2.047093
 H         2.239438        -3.521580         1.865186
 H         1.905041        -1.707654         4.071604
 H         3.451132        -2.177305         3.071210
 H         2.623206         1.196197         1.134737
