19
Iteration:  3140
 C        -0.126203        -0.242885         0.283242
 C         1.318078        -0.546632         0.437651
 O         2.191685        -0.174520        -0.641726
 C         3.074107        -0.836955         0.371900
 C         1.978566        -1.888465         0.619473
 C         1.848490        -2.516028         1.964601
 C         2.446428        -1.743477         3.118133
 O         2.266282        -0.301113         2.860231
 C         2.374112         0.053474         1.468923
 H        -0.613767        -0.541585         1.219698
 H        -0.375246         0.803822         0.192841
 H        -0.720689        -0.708022        -0.507191
 H         4.131079        -0.903537         0.012063
 H         1.865326        -2.586684        -0.204798
 H         0.794628        -2.748549         2.066330
 H         2.206182        -3.607433         1.955713
 H         2.107008        -1.954427         4.082118
 H         3.679823        -1.796528         3.236718
 H         2.568716         1.096933         1.469004
