19
Iteration:    73
 C        -0.034507         0.006943         0.260777
 C         1.249822        -0.669080         0.387543
 O         2.188958        -0.393327        -0.688888
 C         3.027389        -0.725780         0.374563
 C         1.952199        -1.985700         0.642637
 C         1.709844        -2.531557         2.158918
 C         2.494112        -1.657839         3.079849
 O         2.427053        -0.257484         2.824687
 C         2.284372         0.008002         1.463598
 H        -0.711261        -0.774548         0.640643
 H        -0.074859         0.771936         1.035556
 H        -0.404540         0.346429        -0.804037
 H         4.107866        -0.929635         0.153791
 H         1.891290        -2.647633        -0.273436
 H         0.525846        -2.666250         2.157998
 H         2.153472        -3.585790         2.316130
 H         2.321483        -1.872536         4.214427
 H         3.684260        -1.918890         2.877010
 H         2.385653         1.134019         1.278408
