19
Iteration:  2629
 C        -0.239806        -0.129166         0.208877
 C         1.199258        -0.619970         0.366871
 O         2.311240        -0.156788        -0.603366
 C         3.060429        -0.790409         0.535702
 C         2.004093        -1.954639         0.609554
 C         1.756237        -2.599608         2.005827
 C         2.597229        -1.654673         3.039532
 O         2.395872        -0.308210         2.866207
 C         2.219241        -0.019776         1.455620
 H        -0.676984        -0.039547         1.282209
 H        -0.125033         0.932645        -0.134622
 H        -0.799995        -0.708811        -0.510909
 H         4.171095        -0.810718         0.339013
 H         2.022535        -2.770115        -0.136670
 H         0.760535        -2.450804         2.254268
 H         1.940034        -3.743525         1.904587
 H         2.227829        -2.002756         4.009443
 H         3.684456        -2.039457         2.928470
 H         2.260006         1.081580         1.382707
