19
Iteration:  4895
 C        -0.102081        -0.110612         0.311057
 C         1.315119        -0.474548         0.467325
 O         2.230262        -0.265082        -0.677666
 C         3.081417        -0.888407         0.473266
 C         1.877802        -1.886945         0.708482
 C         1.921091        -2.647808         2.038423
 C         2.570582        -1.698901         2.984103
 O         2.183666        -0.253734         2.758619
 C         2.295569         0.061163         1.491323
 H        -0.626182        -0.658800         1.064504
 H        -0.353003         0.947616         0.169129
 H        -0.384644        -0.625444        -0.621015
 H         4.086927        -1.178190         0.234313
 H         1.536568        -2.567667        -0.081499
 H         0.858561        -2.932680         2.226804
 H         2.649193        -3.457133         1.844495
 H         2.021732        -1.919675         3.987527
 H         3.592696        -1.914840         3.110482
 H         2.413065         1.153642         1.268112
