19
Iteration:   531charge 0 multiplicity 1
 C        -0.186852        -0.121717         0.373390
 C         1.230525        -0.467200         0.427024
 O         2.296612        -0.253184        -0.666293
 C         3.009076        -0.998646         0.421025
 C         1.860036        -1.917367         0.621368
 C         1.902249        -2.619544         2.095451
 C         2.516868        -1.660534         3.099207
 O         2.265738        -0.219670         2.757901
 C         2.409882         0.060583         1.372489
 H        -0.792956        -0.562809         1.100073
 H        -0.258909         0.934100         0.315769
 H        -0.553351        -0.291828        -0.622247
 H         4.045797        -1.157048         0.261533
 H         1.783141        -2.614778        -0.233528
 H         0.909720        -3.014540         2.328141
 H         2.459671        -3.622412         1.993904
 H         2.124089        -1.846983         4.127671
 H         3.506336        -1.811769         3.100841
 H         2.809717         1.039145         1.424490
