19
Iteration:   624charge 0 multiplicity 1
 C        -0.191318        -0.132627         0.260496
 C         1.309198        -0.488930         0.355005
 O         2.174675        -0.245206        -0.676790
 C         3.074725        -0.883262         0.400941
 C         1.888747        -1.907458         0.623055
 C         1.798832        -2.589513         2.086304
 C         2.528180        -1.655124         3.070132
 O         2.396015        -0.276458         2.860930
 C         2.392479        -0.035197         1.503228
 H        -0.753037        -0.302838         1.221057
 H        -0.447058         0.810245        -0.263473
 H        -0.583561        -0.724922        -0.575994
 H         4.240672        -0.874966         0.382787
 H         1.667787        -2.622189        -0.189772
 H         0.743140        -2.633062         2.469684
 H         2.057873        -3.581898         2.285633
 H         2.227369        -1.814950         4.067366
 H         3.533191        -1.887153         2.999874
 H         2.510755         1.072537         1.250904
