19
Iteration:  1773charge 0 multiplicity 1
 C        -0.236607        -0.306835         0.266398
 C         1.247078        -0.456500         0.489097
 O         2.373643        -0.196583        -0.580890
 C         3.038507        -0.977779         0.406117
 C         1.822421        -1.898966         0.614481
 C         1.805699        -2.536893         1.979738
 C         2.558556        -1.669239         3.000610
 O         2.334818        -0.192674         2.867295
 C         2.382599         0.035228         1.470384
 H        -0.671684        -0.654586         1.233872
 H        -0.584592         0.708978         0.020404
 H        -0.512488        -0.861074        -0.585097
 H         3.984270        -1.358441         0.163350
 H         1.599423        -2.358504        -0.384847
 H         0.775050        -2.682920         2.291010
 H         2.124563        -3.485048         1.758564
 H         2.211840        -1.893014         4.056312
 H         3.641420        -1.722486         2.889693
 H         2.618203         1.062657         1.443477
