19
Iteration:  1580
 C        -0.247008        -0.214494         0.206753
 C         1.286796        -0.449197         0.459349
 O         2.300969        -0.193754        -0.689630
 C         3.063870        -0.898309         0.289487
 C         1.812316        -1.883965         0.717981
 C         1.874363        -2.604320         2.095461
 C         2.519863        -1.687098         3.083466
 O         2.281861        -0.316713         2.835670
 C         2.426977         0.092417         1.483973
 H        -0.701555        -0.758081         0.978064
 H        -0.396227         0.835655         0.169013
 H        -0.538833        -0.726768        -0.679903
 H         4.060943        -1.152506         0.161981
 H         1.380454        -2.549750         0.036173
 H         0.864266        -2.884453         2.535881
 H         2.456135        -3.601917         2.047682
 H         2.149885        -1.864508         4.128591
 H         3.736479        -1.693986         3.119018
 H         2.751520         1.097605         1.311764
