19
Iteration:  2245charge 0 multiplicity 1
 C        -0.186447        -0.021592         0.247397
 C         1.251949        -0.502827         0.510034
 O         2.255130        -0.286401        -0.585403
 C         3.040619        -0.910822         0.461983
 C         2.012555        -1.964412         0.600840
 C         1.890095        -2.645982         1.977985
 C         2.507215        -1.663436         3.019960
 O         2.252660        -0.284900         2.821529
 C         2.291985         0.051648         1.423290
 H        -0.733887        -0.149913         1.159508
 H        -0.116535         1.037529         0.188561
 H        -0.712517        -0.544372        -0.570852
 H         4.114339        -0.986393         0.280760
 H         1.890060        -2.637493        -0.289789
 H         0.779215        -2.881173         2.242847
 H         2.412350        -3.635217         1.932478
 H         2.361225        -1.768059         4.113198
 H         3.598522        -1.772927         3.063760
 H         2.517836         1.153365         1.389633
