19
Iteration:  1208charge 0 multiplicity 1
 C        -0.088966        -0.005909         0.300359
 C         1.278663        -0.635832         0.442704
 O         2.153136        -0.278804        -0.644998
 C         3.033584        -0.811607         0.390419
 C         2.062107        -2.011023         0.588980
 C         1.827798        -2.559562         2.109995
 C         2.560341        -1.631829         3.103528
 O         2.256359        -0.300123         2.779362
 C         2.252002        -0.006499         1.406886
 H        -0.788277        -0.642471         0.877679
 H         0.106179         1.064383         0.683608
 H        -0.382682         0.099329        -0.785537
 H         4.080955        -0.947213         0.284832
 H         2.083892        -2.861483        -0.092057
 H         0.753160        -2.647636         2.178947
 H         2.137147        -3.593231         2.274815
 H         2.251208        -1.694131         4.244096
 H         3.694086        -1.896239         2.980599
 H         2.334395         1.112765         1.270344
