19
Iteration:  4327charge 0 multiplicity 1
 C        -0.132578        -0.057704         0.217539
 C         1.237350        -0.522488         0.477968
 O         2.255036        -0.341153        -0.662749
 C         2.994822        -0.965405         0.352891
 C         1.905344        -1.952152         0.702097
 C         1.967787        -2.564171         2.065983
 C         2.618871        -1.611803         3.154650
 O         2.192768        -0.276574         2.765920
 C         2.282056         0.073341         1.439390
 H        -0.952196        -0.434344         0.889613
 H        -0.352835         1.030965         0.384950
 H        -0.408567        -0.395279        -0.820978
 H         4.052105        -0.980108         0.219310
 H         1.554854        -2.597650        -0.110697
 H         0.978180        -2.856795         2.481074
 H         2.728067        -3.502533         1.980152
 H         2.344183        -1.908134         4.206225
 H         3.700334        -1.557412         3.197785
 H         2.636014         1.073887         1.178969
