19
Iteration:  1091charge 0 multiplicity 1
 C        -0.189534        -0.156745         0.393923
 C         1.261685        -0.563438         0.444686
 O         2.322729        -0.270398        -0.722474
 C         3.101080        -0.792994         0.351528
 C         1.999794        -1.946688         0.633657
 C         1.768719        -2.538213         2.008467
 C         2.470625        -1.674427         3.062759
 O         2.383585        -0.271142         2.835673
 C         2.239570         0.021779         1.457012
 H        -0.661943        -0.041521         1.377734
 H        -0.194303         0.655726        -0.293142
 H        -0.833254        -0.902944        -0.061993
 H         4.183719        -0.936518         0.318664
 H         1.842083        -2.724025        -0.165900
 H         0.610265        -2.517630         2.236038
 H         2.006503        -3.598250         2.094705
 H         1.968641        -1.760776         3.996205
 H         3.628442        -2.034934         3.132578
 H         2.268511         1.124022         1.509257
