19
Iteration:  1809
 C        -0.127973        -0.238089         0.314452
 C         1.312737        -0.574153         0.468325
 O         2.180817        -0.228972        -0.620904
 C         3.084324        -0.789742         0.409260
 C         2.032391        -1.857254         0.671293
 C         1.729293        -2.525361         2.004088
 C         2.457294        -1.698677         3.056956
 O         2.361990        -0.314492         2.738818
 C         2.329084         0.047501         1.443780
 H        -0.760170        -0.642606         1.178217
 H        -0.153379         0.909867         0.308126
 H        -0.502049        -0.819286        -0.625900
 H         4.124759        -0.993578         0.120467
 H         2.074612        -2.704704        -0.014259
 H         0.750453        -2.194317         2.302262
 H         1.774845        -3.606767         2.073181
 H         2.051459        -1.948965         4.133517
 H         3.576964        -2.062889         3.095186
 H         2.507902         1.178772         1.306369
