19
Iteration:  1793
 C        -0.199068        -0.293859         0.297480
 C         1.269480        -0.473554         0.399283
 O         2.288010        -0.189966        -0.712271
 C         3.084589        -0.867640         0.394336
 C         1.944314        -1.944660         0.623398
 C         1.678378        -2.481947         2.039144
 C         2.532563        -1.707130         3.080140
 O         2.361849        -0.302741         2.889977
 C         2.393426         0.087066         1.472551
 H        -0.644288        -0.690035         1.185130
 H        -0.612915         0.667568         0.238762
 H        -0.631537        -0.789913        -0.512567
 H         4.175694        -0.870542         0.245192
 H         1.710486        -2.555880        -0.270204
 H         0.606185        -2.721479         2.217929
 H         2.110542        -3.510225         2.211954
 H         2.252384        -1.840147         4.076051
 H         3.523839        -1.956819         2.932339
 H         2.607850         1.124854         1.340142
