19
Iteration:  2111charge 0 multiplicity 1
 C        -0.084099        -0.142083         0.234305
 C         1.274008        -0.555646         0.487976
 O         2.186893        -0.218390        -0.685979
 C         3.038747        -0.795515         0.489544
 C         1.986098        -1.967420         0.695965
 C         1.798658        -2.599632         2.056623
 C         2.518591        -1.720878         2.976068
 O         2.346029        -0.311478         2.824093
 C         2.305187         0.078889         1.451401
 H        -0.682842        -0.012362         1.176940
 H         0.004691         0.934150        -0.106887
 H        -0.717245        -0.750557        -0.425921
 H         4.040472        -0.844556         0.183686
 H         1.707882        -2.653330        -0.180096
 H         0.613783        -2.502318         2.249575
 H         2.379481        -3.576857         1.989386
 H         1.981044        -2.028865         3.927818
 H         3.600117        -2.034734         3.007681
 H         2.436137         1.161676         1.451619
