19
Iteration:  3873
 C        -0.173960        -0.417913         0.350741
 C         1.296876        -0.523739         0.451667
 O         2.180833        -0.320103        -0.641240
 C         3.100121        -0.794658         0.431007
 C         1.963149        -1.835305         0.610507
 C         1.658010        -2.483450         2.019916
 C         2.456823        -1.644440         3.052751
 O         2.451910        -0.227330         2.798054
 C         2.433910         0.106976         1.458597
 H        -0.731840        -1.052721         0.969594
 H        -0.426047         0.631877         0.482938
 H        -0.177827        -0.753938        -0.685071
 H         4.221002        -0.927124         0.247333
 H         1.778865        -2.545488        -0.197293
 H         0.519931        -2.562234         2.066891
 H         1.869785        -3.593044         1.890781
 H         1.967413        -1.699323         3.995496
 H         3.452120        -1.975117         3.033993
 H         2.524187         1.140330         1.371259
