19
Iteration:  4176
 C        -0.115513         0.014993         0.193574
 C         1.168123        -0.550034         0.485711
 O         2.190050        -0.369622        -0.767220
 C         3.037476        -0.883882         0.460283
 C         1.932211        -1.924459         0.753877
 C         2.002371        -2.543199         2.091840
 C         2.645254        -1.652038         3.124873
 O         2.206522        -0.315002         2.828833
 C         2.278554         0.050112         1.382836
 H        -0.776627        -0.198414         0.993231
 H        -0.187764         1.049743        -0.108947
 H        -0.542084        -0.575472        -0.634214
 H         4.098184        -1.072197         0.221947
 H         1.738786        -2.676437        -0.017900
 H         1.055399        -2.943127         2.462031
 H         2.539231        -3.457438         2.081456
 H         2.171204        -1.836768         4.144235
 H         3.749299        -1.771220         2.931520
 H         2.356104         1.082691         1.209896
