19
Iteration:  1185
 C        -0.197171        -0.062447         0.226360
 C         1.287105        -0.539526         0.525688
 O         2.255550        -0.302214        -0.668235
 C         3.045893        -0.852329         0.379021
 C         1.886105        -1.956050         0.725869
 C         1.855614        -2.622518         2.063136
 C         2.611305        -1.664345         3.027649
 O         2.243200        -0.276490         2.818905
 C         2.357601         0.075657         1.431504
 H        -0.943965        -0.758328         0.668930
 H        -0.317422         1.040581         0.483355
 H        -0.342041        -0.131941        -0.887830
 H         4.113079        -0.990390         0.225515
 H         1.743437        -2.719240        -0.033039
 H         0.882278        -2.886672         2.454107
 H         2.411698        -3.576581         1.932848
 H         2.103715        -1.877798         4.049188
 H         3.779348        -1.766658         3.087689
 H         2.365458         1.172530         1.244510
