19
Iteration:  4386charge 0 multiplicity 1
 C        -0.193630        -0.178990         0.215910
 C         1.244353        -0.625283         0.432001
 O         2.249972        -0.187560        -0.690605
 C         3.059482        -0.936652         0.358230
 C         1.935500        -1.980582         0.665310
 C         1.755657        -2.512587         2.142311
 C         2.664764        -1.642413         3.076485
 O         2.298265        -0.241398         2.883911
 C         2.290140         0.058183         1.405344
 H        -0.918436        -0.734726         0.743350
 H        -0.204180         0.893991         0.230432
 H        -0.438633        -0.379688        -0.811716
 H         4.206725        -1.084058         0.145531
 H         1.802606        -2.751030        -0.118060
 H         0.751349        -2.477358         2.644923
 H         2.151567        -3.559378         2.391755
 H         2.503397        -1.884431         4.118581
 H         3.725086        -1.678160         2.794249
 H         2.505234         1.128047         1.406060
