19
Iteration:  4152charge 0 multiplicity 1
 C        -0.126111        -0.007894         0.201195
 C         1.194013        -0.587395         0.499735
 O         2.201960        -0.273374        -0.587879
 C         3.027843        -0.982800         0.381664
 C         1.921464        -2.059593         0.657498
 C         2.010494        -2.645316         2.115453
 C         2.619251        -1.541851         3.059503
 O         2.101219        -0.223287         2.817146
 C         2.406476         0.061151         1.400213
 H        -0.847940        -0.500095         0.849588
 H        -0.200684         1.029386         0.282051
 H        -0.475479        -0.179864        -0.801413
 H         3.998879        -1.173700         0.035507
 H         1.804792        -2.694242        -0.207781
 H         1.078050        -2.854956         2.592284
 H         2.401377        -3.688681         2.152651
 H         2.464365        -1.673171         4.161180
 H         3.620354        -1.497218         2.536724
 H         2.589859         1.129490         1.139120
