19
Iteration:  4775
 C        -0.182191        -0.281475         0.181803
 C         1.271826        -0.557556         0.442577
 O         2.192777        -0.116216        -0.592962
 C         3.085094        -0.866781         0.433144
 C         2.022481        -2.006758         0.650426
 C         1.630014        -2.502337         2.031452
 C         2.608978        -1.672703         3.041213
 O         2.411104        -0.267208         2.831338
 C         2.328996         0.046546         1.519969
 H        -0.759026        -0.785401         0.884157
 H        -0.580099         0.716973         0.111776
 H        -0.407875        -0.725682        -0.781416
 H         4.092277        -0.979756         0.226201
 H         1.790292        -2.547467        -0.242952
 H         0.521887        -2.272987         2.300981
 H         1.881153        -3.534689         2.290139
 H         2.506568        -2.101018         4.064851
 H         3.615787        -1.883382         2.498701
 H         2.434054         1.134815         1.417772
