19
Iteration:  1420charge 0 multiplicity 1
 C        -0.082391        -0.170547         0.304713
 C         1.277092        -0.629397         0.371463
 O         2.180877        -0.332330        -0.699008
 C         3.029961        -0.748918         0.392116
 C         2.051164        -1.936488         0.671786
 C         1.713789        -2.545602         2.054725
 C         2.462478        -1.686379         3.115449
 O         2.379019        -0.267248         2.848581
 C         2.333771         0.085417         1.474361
 H        -0.779115        -0.418104         1.117109
 H        -0.118825         0.904492         0.532665
 H        -0.655071        -0.169318        -0.684130
 H         4.069533        -0.887716        -0.042986
 H         2.206171        -2.717244        -0.155089
 H         0.637921        -2.619011         2.034731
 H         2.034298        -3.520966         2.085292
 H         2.192284        -1.861323         4.124067
 H         3.667690        -1.897110         2.921538
 H         2.292052         1.146533         1.245324
