19
Iteration:  1991charge 0 multiplicity 1
 C        -0.142218        -0.268110         0.248453
 C         1.291235        -0.469126         0.445626
 O         2.245053        -0.125861        -0.632727
 C         2.991052        -0.915678         0.407588
 C         1.912046        -1.949068         0.605355
 C         1.743059        -2.572773         2.020995
 C         2.473184        -1.665153         3.070013
 O         2.352096        -0.304686         2.824594
 C         2.455211         0.063438         1.480353
 H        -0.727084        -0.606028         1.106431
 H        -0.485831         0.772763         0.242802
 H        -0.545439        -0.882390        -0.517178
 H         4.020417        -1.063154         0.104009
 H         1.725462        -2.587640        -0.328300
 H         0.775798        -2.544775         2.334930
 H         2.389258        -3.477936         2.218353
 H         2.188429        -1.773408         4.178110
 H         3.562901        -1.929579         3.171870
 H         2.794009         1.091832         1.261983
