19
Iteration:  2039
 C        -0.113844        -0.047428         0.368410
 C         1.275779        -0.571022         0.433103
 O         2.168518        -0.269025        -0.714242
 C         3.136533        -0.881101         0.422228
 C         2.031488        -1.943351         0.699167
 C         1.851317        -2.651689         2.011904
 C         2.492302        -1.725679         3.010485
 O         2.182124        -0.266577         2.815463
 C         2.335592         0.107563         1.436252
 H        -0.820022        -0.243462         1.148002
 H        -0.031779         1.018158         0.379788
 H        -0.663930        -0.379114        -0.533370
 H         4.230009        -1.023495         0.315905
 H         1.973252        -2.665238        -0.079102
 H         0.825486        -2.578897         2.219783
 H         2.305157        -3.608536         2.079962
 H         2.217244        -1.970970         4.067709
 H         3.604824        -1.833107         2.984730
 H         2.567373         1.192122         1.399128
