19
Iteration:  2877
 C        -0.219341        -0.158287         0.248411
 C         1.266593        -0.534099         0.508644
 O         2.299805        -0.193488        -0.537781
 C         3.090312        -0.871799         0.494827
 C         1.885984        -1.872854         0.630325
 C         1.889182        -2.656291         1.930348
 C         2.529149        -1.677393         2.953712
 O         2.241095        -0.296254         2.836826
 C         2.326641         0.077757         1.416420
 H        -0.709060        -0.254621         1.242785
 H         0.022945         0.799737        -0.194729
 H        -0.706403        -1.108899        -0.163243
 H         4.140339        -1.017835         0.321909
 H         1.752932        -2.533976        -0.280615
 H         0.985001        -2.997270         2.439049
 H         2.544940        -3.442644         1.767758
 H         1.995499        -1.906745         3.886958
 H         3.532478        -1.784236         3.047515
 H         2.496496         1.190762         1.144659
