19
Iteration:  1764
 C        -0.161792        -0.246247         0.246503
 C         1.241648        -0.459408         0.532334
 O         2.324147        -0.186929        -0.563325
 C         2.971066        -0.987745         0.463671
 C         1.861431        -1.911046         0.622656
 C         1.819837        -2.494471         1.974029
 C         2.554909        -1.653530         2.954501
 O         2.300506        -0.258930         2.814731
 C         2.404959         0.045546         1.449627
 H        -0.802494        -0.610301         1.134886
 H        -0.589059         0.801848         0.064626
 H        -0.484422        -0.992224        -0.539149
 H         4.005279        -1.171366         0.332648
 H         1.620653        -2.615809        -0.225979
 H         0.834236        -2.791290         2.288192
 H         2.388107        -3.414148         2.083704
 H         2.208539        -1.960945         4.049188
 H         3.722741        -1.884508         2.913660
 H         2.733254         1.052507         1.143958
