19
Iteration:  3218
 C        -0.183025        -0.170917         0.157587
 C         1.279516        -0.597794         0.491264
 O         2.185461        -0.218131        -0.579721
 C         3.068701        -0.811215         0.344917
 C         2.000731        -1.886164         0.624535
 C         1.823440        -2.563911         2.026326
 C         2.625351        -1.744230         3.030837
 O         2.278574        -0.337023         2.894867
 C         2.275809         0.086273         1.495864
 H        -0.920501        -0.348764         0.975613
 H        -0.276039         0.920921         0.062707
 H        -0.445992        -0.511267        -0.812214
 H         4.187011        -0.929957         0.250338
 H         1.918658        -2.583855        -0.243102
 H         0.782095        -2.532672         2.377554
 H         2.085051        -3.677176         1.976630
 H         2.290939        -1.885177         4.000942
 H         3.738665        -1.657113         2.956801
 H         2.461604         1.127967         1.546549
