19
Iteration:  2653charge 0 multiplicity 1
 C        -0.204420        -0.238591         0.190780
 C         1.289417        -0.489232         0.464406
 O         2.289301        -0.194299        -0.622574
 C         3.086200        -0.810668         0.498435
 C         1.966509        -1.871886         0.615456
 C         1.718080        -2.547316         2.051377
 C         2.609852        -1.757887         2.975457
 O         2.321615        -0.323905         2.872646
 C         2.272321         0.058517         1.485979
 H        -0.694460         0.006782         1.226444
 H        -0.301527         0.688501        -0.442138
 H        -0.570110        -1.137034        -0.403484
 H         4.181756        -0.856282         0.138503
 H         1.673731        -2.560275        -0.189533
 H         0.635113        -2.525345         2.239764
 H         2.019685        -3.577353         1.982816
 H         2.327685        -1.984523         4.062460
 H         3.669399        -2.214478         2.817764
 H         2.366656         1.128260         1.374722
