19
Iteration:  2844
 C        -0.168239        -0.210175         0.163072
 C         1.231329        -0.531221         0.435630
 O         2.204087        -0.158940        -0.640883
 C         3.098231        -0.788628         0.362855
 C         1.936479        -1.877470         0.620749
 C         1.810692        -2.549954         2.013796
 C         2.617559        -1.767858         3.112953
 O         2.303084        -0.370747         2.949333
 C         2.300315         0.035105         1.466592
 H        -0.675609        -0.012131         1.116020
 H        -0.234173         0.727418        -0.423236
 H        -0.559818        -0.986201        -0.578596
 H         4.145136        -0.836886         0.177064
 H         1.962115        -2.538714        -0.261720
 H         0.763229        -2.597225         2.359742
 H         2.177123        -3.528641         2.008213
 H         2.200847        -1.884068         4.115129
 H         3.645315        -1.955103         3.175513
 H         2.477069         1.156933         1.458521
