19
Iteration:  2771charge 0 multiplicity 1
 C        -0.217013        -0.211829         0.321039
 C         1.305952        -0.471187         0.477918
 O         2.295765        -0.158861        -0.662922
 C         3.115113        -0.908994         0.444103
 C         1.892690        -1.916262         0.603225
 C         1.892001        -2.554036         1.959085
 C         2.493063        -1.734766         3.093395
 O         2.183937        -0.269560         2.804707
 C         2.397643         0.015262         1.448146
 H        -0.613438        -0.827632         1.159155
 H        -0.606831         0.770563         0.502473
 H        -0.412131        -0.438997        -0.731502
 H         4.192603        -1.171954         0.219093
 H         1.472543        -2.416191        -0.309270
 H         0.885672        -2.772938         2.363684
 H         2.404214        -3.637682         1.984038
 H         2.238260        -1.977597         4.149178
 H         3.598927        -1.595705         3.140448
 H         2.544911         1.097744         1.274100
