19
Iteration:  1572charge 0 multiplicity 1
 C        -0.195259        -0.194418         0.190284
 C         1.275056        -0.374684         0.502951
 O         2.286772        -0.193594        -0.681188
 C         3.045448        -0.939738         0.366906
 C         1.767292        -1.934541         0.747692
 C         1.897350        -2.639793         2.141338
 C         2.541578        -1.651908         3.023971
 O         2.232695        -0.317197         2.784015
 C         2.454447         0.081927         1.457454
 H        -0.668223        -0.665692         1.074621
 H        -0.507593         0.874257         0.263829
 H        -0.464976        -0.835441        -0.711049
 H         4.139299        -1.160717         0.026881
 H         1.579393        -2.506140        -0.218527
 H         0.900422        -2.999292         2.464378
 H         2.624671        -3.469501         1.942318
 H         2.187110        -1.890453         3.986585
 H         3.720091        -1.739065         3.131694
 H         2.677918         1.196052         1.411866
