19
Iteration:   136
 C        -0.182658        -0.241490         0.362792
 C         1.260477        -0.435919         0.526803
 O         2.414423        -0.285360        -0.718914
 C         3.012914        -1.047002         0.353971
 C         1.765255        -1.830960         0.622266
 C         1.783071        -2.556214         1.985429
 C         2.529806        -1.652451         3.087491
 O         2.310339        -0.189083         2.846312
 C         2.403871         0.067895         1.462813
 H        -0.714795        -0.859287         1.172952
 H        -0.637238         0.763617         0.367997
 H        -0.370258        -0.516905        -0.687393
 H         4.006738        -1.522635         0.140672
 H         1.335707        -2.346759        -0.311676
 H         0.797982        -2.876042         2.403806
 H         2.418858        -3.378506         1.861074
 H         2.275537        -1.781898         4.115925
 H         3.536924        -1.835189         2.967940
 H         2.820189         1.092851         1.297192
