19
Iteration:   603
 C        -0.199676        -0.173267         0.215514
 C         1.249140        -0.623804         0.464237
 O         2.261276        -0.270057        -0.636101
 C         2.980561        -0.824532         0.428795
 C         2.009164        -1.945472         0.663873
 C         1.705155        -2.432820         2.049740
 C         2.611186        -1.753903         3.091753
 O         2.460479        -0.318468         2.816534
 C         2.257375         0.109073         1.430962
 H        -0.914756        -0.231160         1.102603
 H        -0.051366         0.962256         0.049757
 H        -0.714231        -0.283845        -0.790248
 H         4.072545        -1.075842         0.082443
 H         1.887385        -2.703513        -0.124093
 H         0.663080        -2.455003         2.387475
 H         1.925311        -3.447282         2.166217
 H         2.210588        -1.928741         4.066854
 H         3.676318        -2.141038         3.067364
 H         2.283853         1.241606         1.153840
