19
Iteration:  4810charge 0 multiplicity 1
 C        -0.265776        -0.268314         0.320957
 C         1.279460        -0.435598         0.487666
 O         2.327686        -0.232784        -0.686565
 C         3.052050        -0.882758         0.445465
 C         1.969922        -1.874629         0.600602
 C         1.778194        -2.570656         1.989522
 C         2.535637        -1.685203         3.072446
 O         2.340504        -0.288850         2.828819
 C         2.349790         0.081498         1.426788
 H        -0.714657        -1.217197         0.706296
 H        -0.738486         0.598914         0.757363
 H        -0.449092        -0.380878        -0.769125
 H         4.087786        -1.066141         0.184532
 H         1.551686        -2.492974        -0.258285
 H         0.579258        -2.630572         2.069645
 H         2.157933        -3.546053         2.293440
 H         2.244879        -1.708201         4.148249
 H         3.688178        -1.963175         3.230127
 H         2.452246         1.173902         1.422988
