19
Iteration:  1151
 C        -0.200630        -0.236952         0.180736
 C         1.255441        -0.466112         0.455174
 O         2.287857        -0.186374        -0.651340
 C         3.042176        -0.973032         0.465639
 C         1.746214        -1.898093         0.666288
 C         1.837509        -2.531230         2.055533
 C         2.632367        -1.652487         3.002422
 O         2.296988        -0.255388         2.860861
 C         2.400550         0.033746         1.459927
 H        -0.781768        -0.726179         0.994442
 H        -0.545848         0.851693         0.215234
 H        -0.378857        -0.668575        -0.838811
 H         4.105741        -1.265753         0.333948
 H         1.525461        -2.643390        -0.082290
 H         0.897919        -2.846805         2.445026
 H         2.431378        -3.454089         1.805644
 H         2.251058        -1.872770         4.073324
 H         3.817026        -1.920773         3.080240
 H         2.689601         1.101034         1.378628
