19
Iteration:  3110
 C        -0.173178        -0.051149         0.404405
 C         1.238295        -0.596677         0.420742
 O         2.305714        -0.221395        -0.651404
 C         3.114446        -0.829960         0.437706
 C         2.010281        -1.962485         0.638170
 C         1.959908        -2.700598         1.938332
 C         2.386789        -1.673130         3.072855
 O         2.229962        -0.265426         2.755042
 C         2.260524         0.066761         1.455216
 H        -0.823501        -0.414358         1.323239
 H        -0.129149         1.071570         0.286302
 H        -0.941237        -0.538207        -0.205924
 H         4.246750        -0.870581         0.273058
 H         1.978899        -2.611462        -0.306910
 H         0.883577        -3.073093         2.227813
 H         2.670947        -3.468906         1.932261
 H         2.100529        -1.954642         4.079220
 H         3.486311        -1.725111         3.161337
 H         2.324838         1.129415         1.342058
