19
Iteration:  1352
 C        -0.122781        -0.164588         0.260676
 C         1.261543        -0.438017         0.464514
 O         2.261118        -0.310258        -0.660653
 C         2.989109        -0.999154         0.406875
 C         1.821845        -1.861216         0.661770
 C         1.903027        -2.550748         1.983019
 C         2.637566        -1.650305         3.067472
 O         2.183317        -0.281337         2.842707
 C         2.374256         0.080543         1.491304
 H        -0.735138        -0.406670         1.143913
 H        -0.378414         0.860914        -0.065520
 H        -0.246693        -0.804295        -0.662328
 H         4.004096        -1.296790         0.290644
 H         1.644630        -2.459016        -0.237113
 H         0.951021        -2.721629         2.433624
 H         2.333285        -3.518730         1.866023
 H         2.327036        -1.822382         4.131207
 H         3.768563        -1.690569         2.922215
 H         2.773524         1.115610         1.423936
