19
Iteration:   239
 C        -0.152642        -0.233277         0.269852
 C         1.314379        -0.414440         0.467369
 O         2.317562        -0.214298        -0.584073
 C         3.075461        -0.972219         0.317400
 C         1.663562        -1.878514         0.570442
 C         1.785213        -2.617236         2.061660
 C         2.567166        -1.638258         3.074855
 O         2.266180        -0.272028         2.824346
 C         2.477757         0.033586         1.482001
 H        -0.688775         0.172986         1.105491
 H        -0.258665         0.529142        -0.512960
 H        -0.669838        -1.199390         0.069522
 H         4.146080        -1.131425         0.234065
 H         1.326606        -2.431821        -0.280237
 H         0.858653        -2.945687         2.628196
 H         2.467176        -3.474055         1.851163
 H         2.447915        -1.573217         4.176380
 H         3.599541        -1.802471         2.919313
 H         2.594752         1.072389         1.228435
