19
Iteration:   658
 C        -0.125030        -0.162305         0.409868
 C         1.321604        -0.423387         0.539154
 O         2.290570        -0.276579        -0.671679
 C         3.067454        -0.964487         0.416816
 C         1.829489        -1.904976         0.632566
 C         1.894065        -2.601732         1.999391
 C         2.512083        -1.616966         3.018185
 O         2.186286        -0.261235         2.763962
 C         2.406300        -0.010501         1.414860
 H        -0.739431         0.129228         1.286116
 H        -0.216455         0.824917        -0.102634
 H        -0.608571        -1.003619        -0.107075
 H         4.155357        -1.226112         0.157765
 H         1.306431        -2.449841        -0.169454
 H         0.823707        -2.740715         2.261417
 H         2.505535        -3.454093         1.949451
 H         2.071873        -1.852636         3.955704
 H         3.533405        -1.706297         3.123782
 H         2.602088         1.083897         1.181968
