19
Iteration:   438
 C        -0.289956        -0.223120         0.284965
 C         1.246147        -0.410332         0.578666
 O         2.356635        -0.281480        -0.582577
 C         3.062561        -1.029266         0.375909
 C         1.864543        -1.906936         0.604491
 C         1.787876        -2.518887         1.985198
 C         2.542798        -1.687279         3.014523
 O         2.325399        -0.232608         2.865351
 C         2.433122         0.128898         1.382995
 H        -0.888387         0.098633         1.209505
 H        -0.556825         0.409315        -0.575401
 H        -0.713285        -1.126233        -0.150310
 H         4.181973        -1.198115         0.233871
 H         1.701910        -2.550313        -0.246911
 H         0.755357        -2.660948         2.300588
 H         2.116721        -3.572911         2.039279
 H         2.262645        -1.906939         4.007947
 H         3.526785        -1.845399         2.942003
 H         2.874958         1.134986         1.184740
