19
Iteration:  4395
 C        -0.205595        -0.240854         0.191868
 C         1.266130        -0.548637         0.404497
 O         2.229864        -0.218314        -0.640082
 C         3.069699        -0.873150         0.359490
 C         1.914864        -2.030380         0.658907
 C         1.776583        -2.460099         2.159855
 C         2.622251        -1.675156         3.058296
 O         2.318141        -0.207988         2.837574
 C         2.327187         0.054333         1.451105
 H        -0.772113        -0.666406         1.015406
 H        -0.267706         0.850204         0.423296
 H        -0.460438        -0.597056        -0.804470
 H         4.205566        -0.919667         0.215976
 H         1.694993        -2.901324         0.014032
 H         0.669354        -2.471622         2.270629
 H         2.032947        -3.646262         2.117345
 H         2.515137        -1.816865         4.152187
 H         3.613785        -2.007313         2.876840
 H         2.679876         1.078511         1.335340
