19
Iteration:    91charge 0 multiplicity 1
 C        -0.150946        -0.077983         0.303527
 C         1.257044        -0.603349         0.513974
 O         2.155395        -0.342174        -0.672866
 C         3.136926        -0.861435         0.362243
 C         2.005542        -2.049381         0.677866
 C         1.707682        -2.501908         2.039894
 C         2.498682        -1.655311         3.048434
 O         2.409910        -0.239405         2.837213
 C         2.342105         0.049896         1.424017
 H        -1.119309        -0.628366         0.552431
 H        -0.201325         0.930855         0.771238
 H         0.057745         0.192963        -0.704389
 H         4.215170        -0.813824         0.092661
 H         1.881760        -2.766132        -0.171239
 H         0.608905        -2.346234         2.154008
 H         1.937927        -3.527066         2.067820
 H         2.075381        -1.790912         3.992305
 H         3.492206        -1.894103         3.106506
 H         2.379515         1.122364         1.257346
