19
Iteration:  4789
 C        -0.217773        -0.362738         0.213715
 C         1.279410        -0.564932         0.406100
 O         2.258423        -0.135842        -0.606071
 C         3.098276        -0.883598         0.449915
 C         1.874365        -1.870947         0.572922
 C         1.726087        -2.419215         2.078551
 C         2.564751        -1.689126         2.975645
 O         2.392724        -0.287732         2.932561
 C         2.349160         0.027088         1.441721
 H        -0.810578        -1.018328         0.951812
 H        -0.278788         0.660709         0.590288
 H        -0.547696        -0.545327        -0.848852
 H         4.173770        -0.998406         0.141852
 H         1.878510        -2.743474        -0.172507
 H         0.588479        -2.403631         2.313621
 H         1.847659        -3.516616         2.019170
 H         2.379278        -1.796842         4.042844
 H         3.666631        -2.007577         2.953714
 H         2.530912         1.103562         1.310172
