19
Iteration:  1848charge 0 multiplicity 1
 C        -0.186635        -0.138293         0.293404
 C         1.258344        -0.545756         0.370311
 O         2.248944        -0.214421        -0.652112
 C         3.047485        -0.947810         0.419352
 C         1.928165        -1.920305         0.666963
 C         1.881559        -2.568859         2.010617
 C         2.488649        -1.685359         3.079139
 O         2.297028        -0.244715         2.833020
 C         2.356541         0.045663         1.474545
 H        -0.595163        -0.431366         1.256949
 H        -0.220082         0.935088         0.198827
 H        -0.707706        -0.588444        -0.496676
 H         4.063006        -1.187642         0.112557
 H         1.890433        -2.596946        -0.220340
 H         0.766398        -2.841148         2.047101
 H         2.558210        -3.523597         1.848746
 H         2.052669        -1.787035         4.058932
 H         3.590183        -1.816030         3.236809
 H         2.510103         1.102930         1.475707
