19
Iteration:  4618charge 0 multiplicity 1
 C        -0.254245        -0.355418         0.243480
 C         1.254836        -0.538332         0.560047
 O         2.254976        -0.193506        -0.604099
 C         3.088700        -0.960566         0.316234
 C         1.935765        -1.927968         0.593952
 C         1.750717        -2.410620         1.987290
 C         2.497222        -1.649394         3.086972
 O         2.405982        -0.217458         2.839304
 C         2.382035         0.083768         1.504448
 H        -0.745121        -1.024924         0.942992
 H        -0.540193         0.656224         0.268032
 H        -0.412093        -0.763083        -0.740065
 H         4.223258        -1.050048         0.092179
 H         1.763622        -2.682963        -0.169915
 H         0.620565        -2.493854         2.102644
 H         2.148280        -3.469925         2.120816
 H         2.169983        -1.753964         4.129054
 H         3.564099        -2.046170         2.977133
 H         2.709389         1.103783         1.194918
