19
Iteration:  3380charge 0 multiplicity 1
 C        -0.170777        -0.293188         0.044298
 C         1.280259        -0.485004         0.588942
 O         2.158556        -0.207510        -0.573793
 C         3.059601        -0.825658         0.434512
 C         1.957856        -1.888151         0.673172
 C         1.763222        -2.530680         2.039706
 C         2.617381        -1.737517         2.976277
 O         2.353258        -0.289668         2.881948
 C         2.363823         0.088669         1.523313
 H        -0.868251        -0.738581         0.822050
 H        -0.574768         0.732868        -0.119415
 H        -0.173447        -0.711309        -0.970796
 H         4.165239        -0.957548         0.192429
 H         1.621990        -2.450588        -0.195729
 H         0.723986        -2.552974         2.354281
 H         1.969057        -3.639234         1.923286
 H         2.239973        -2.085691         3.919736
 H         3.673802        -1.895472         2.692522
 H         2.513780         1.105392         1.286863
