19
Iteration:  2417
 C        -0.138999         0.001537         0.264223
 C         1.265190        -0.539867         0.403826
 O         2.223375        -0.258201        -0.706635
 C         3.045193        -0.789225         0.443964
 C         2.016128        -1.986529         0.684847
 C         1.862851        -2.662822         2.077759
 C         2.551068        -1.788824         3.093220
 O         2.253111        -0.313675         2.795608
 C         2.284796         0.086976         1.423836
 H        -0.728288        -0.390095         1.123748
 H        -0.153011         1.107330         0.360427
 H        -0.849944        -0.340657        -0.544564
 H         4.085557        -0.718909         0.304025
 H         1.870834        -2.653233        -0.220182
 H         0.863267        -2.617554         2.247153
 H         2.349046        -3.736620         2.068879
 H         2.096402        -2.043238         4.085126
 H         3.656499        -1.695321         3.115622
 H         2.484677         1.166962         1.516051
