19
Iteration:  2043charge 0 multiplicity 1
 C        -0.092701        -0.054108         0.365209
 C         1.308459        -0.571539         0.444240
 O         2.165114        -0.250403        -0.700812
 C         3.132745        -0.909586         0.419151
 C         2.004875        -1.912583         0.709399
 C         1.858056        -2.643137         1.979100
 C         2.514252        -1.740178         3.044273
 O         2.161080        -0.286017         2.813975
 C         2.329469         0.103204         1.423216
 H        -0.816934        -0.335604         1.221427
 H        -0.062219         1.091922         0.274324
 H        -0.646089        -0.388361        -0.563374
 H         4.244854        -1.037002         0.242884
 H         1.874320        -2.655927        -0.103789
 H         0.698487        -2.680681         2.398397
 H         2.390516        -3.608476         2.055617
 H         2.163375        -1.748968         4.058489
 H         3.625763        -1.696514         2.934133
 H         2.575624         1.161435         1.238667
