19
Iteration:  1190
 C        -0.134867        -0.063740         0.248337
 C         1.272518        -0.615136         0.529621
 O         2.247651        -0.280445        -0.691569
 C         3.071105        -0.840282         0.385449
 C         1.887751        -1.943416         0.748237
 C         1.865966        -2.609298         2.065855
 C         2.582378        -1.669006         3.054951
 O         2.252016        -0.297451         2.781564
 C         2.311952         0.058824         1.424038
 H        -1.055702        -0.535712         0.668967
 H        -0.245229         0.950383         0.582041
 H        -0.230913        -0.114570        -0.824329
 H         4.163096        -0.830849         0.157753
 H         1.633906        -2.602069        -0.138825
 H         0.807804        -2.655272         2.541310
 H         2.462547        -3.509373         1.973938
 H         2.164255        -1.904111         3.993215
 H         3.690170        -1.718292         3.071462
 H         2.267752         1.133409         1.242238
