19
Iteration:  2683
 C        -0.123994        -0.286464         0.230961
 C         1.287099        -0.462551         0.534501
 O         2.263321        -0.168247        -0.642592
 C         3.010719        -0.865772         0.414414
 C         1.904596        -1.850713         0.604456
 C         1.809476        -2.559966         2.005088
 C         2.549618        -1.707040         3.046197
 O         2.192613        -0.317517         2.831307
 C         2.475034         0.068014         1.509291
 H        -0.770618        -0.205527         1.120663
 H        -0.227363         0.670246        -0.257196
 H        -0.492433        -1.006900        -0.438644
 H         4.019664        -1.078010         0.025736
 H         1.517142        -2.519959        -0.160694
 H         0.837203        -2.774012         2.308719
 H         2.348861        -3.631192         1.927963
 H         2.144633        -1.969146         3.994144
 H         3.542905        -2.067822         3.035493
 H         2.767631         1.124146         1.474131
