19
Iteration:  1819charge 0 multiplicity 1
 C        -0.106510        -0.223506         0.329664
 C         1.272317        -0.622694         0.519464
 O         2.158768        -0.234686        -0.619702
 C         3.175148        -0.808401         0.391643
 C         2.056743        -1.957112         0.650903
 C         1.709469        -2.517999         2.002562
 C         2.503970        -1.737548         3.075584
 O         2.351931        -0.304360         2.762148
 C         2.311960         0.102867         1.424911
 H        -0.874045        -0.398632         1.138428
 H        -0.166252         0.914151         0.160566
 H        -0.561654        -0.449545        -0.684877
 H         4.219096        -0.797690         0.104525
 H         1.869405        -2.478345        -0.328913
 H         0.631356        -2.419049         2.047715
 H         1.799124        -3.564536         2.105735
 H         1.926511        -1.598396         4.085547
 H         3.602804        -1.874296         3.237655
 H         2.246254         1.244351         1.304687
