19
Iteration:   694
 C        -0.136456         0.011245         0.430622
 C         1.263191        -0.604899         0.440804
 O         2.249139        -0.303942        -0.733240
 C         3.110864        -0.828458         0.405693
 C         2.025164        -1.982943         0.648505
 C         1.852266        -2.587597         2.043340
 C         2.510632        -1.685026         3.084612
 O         2.261783        -0.283736         2.780494
 C         2.231166         0.010948         1.388920
 H        -0.367258         0.105576         1.491374
 H         0.067058         0.889320        -0.189327
 H        -0.949686        -0.468301        -0.201631
 H         4.141240        -0.811481         0.161274
 H         1.800166        -2.622003        -0.218614
 H         0.829254        -2.678917         2.248544
 H         2.123439        -3.578347         2.222686
 H         2.035285        -1.857497         4.087221
 H         3.521279        -1.871176         3.133617
 H         2.277957         1.079028         1.377770
