19
Iteration:  3094charge 0 multiplicity 1
 C        -0.082576        -0.099802         0.411592
 C         1.310496        -0.530131         0.440785
 O         2.235662        -0.287753        -0.657873
 C         3.042266        -0.839097         0.456705
 C         1.976309        -1.923622         0.584126
 C         1.963726        -2.620678         1.960766
 C         2.477067        -1.690790         2.991452
 O         2.114817        -0.268387         2.879396
 C         2.299688         0.048191         1.394810
 H        -0.475453        -0.236505         1.395291
 H        -0.058859         0.961960         0.235588
 H        -0.713454        -0.481732        -0.415049
 H         4.068925        -0.950511         0.187387
 H         1.869083        -2.543415        -0.270447
 H         1.098144        -3.193637         1.973807
 H         2.704120        -3.551364         1.966416
 H         1.964740        -1.851289         3.984076
 H         3.533123        -1.755353         3.366893
 H         2.484271         1.158754         1.332891
