19
Iteration:  2882
 C        -0.164770        -0.168514         0.291571
 C         1.305014        -0.544086         0.526952
 O         2.294042        -0.212320        -0.571073
 C         3.051767        -0.844180         0.502333
 C         1.908975        -1.887820         0.610610
 C         1.888427        -2.634278         1.931083
 C         2.508991        -1.663180         3.007740
 O         2.204979        -0.290201         2.785749
 C         2.331817         0.077863         1.448006
 H        -0.716779        -0.187471         1.256417
 H        -0.081585         0.834442        -0.199853
 H        -0.667462        -0.943296        -0.252599
 H         4.133788        -1.026320         0.205216
 H         1.625216        -2.512321        -0.273471
 H         0.933440        -3.018020         2.364370
 H         2.547300        -3.590330         1.584107
 H         2.108900        -2.042213         3.969582
 H         3.711656        -1.814810         3.052142
 H         2.390204         1.104609         1.229442
