19
Iteration:  2880charge 0 multiplicity 1
 C        -0.190283        -0.159450         0.268873
 C         1.295102        -0.542672         0.521806
 O         2.297172        -0.205464        -0.554168
 C         3.063681        -0.853655         0.502927
 C         1.900286        -1.874177         0.620737
 C         1.885596        -2.642744         1.930708
 C         2.517607        -1.665224         2.983877
 O         2.219903        -0.294331         2.806915
 C         2.330511         0.077424         1.430987
 H        -0.732901        -0.249090         1.270545
 H         0.002889         0.813757        -0.186889
 H        -0.692376        -1.039454        -0.184040
 H         4.160984        -1.028110         0.238220
 H         1.659114        -2.554546        -0.314070
 H         0.954942        -3.011052         2.425718
 H         2.568425        -3.557325         1.624866
 H         2.045540        -2.002398         3.935165
 H         3.638148        -1.800429         3.050031
 H         2.423682         1.145609         1.167180
