19
Iteration:   481charge 0 multiplicity 1
 C        -0.182590        -0.050134         0.366706
 C         1.278653        -0.569777         0.496010
 O         2.203663        -0.241654        -0.733076
 C         3.110478        -0.906718         0.372974
 C         2.053402        -1.991017         0.682259
 C         1.828183        -2.600207         2.063309
 C         2.488052        -1.658143         3.081422
 O         2.237385        -0.281732         2.768246
 C         2.413359         0.053808         1.391350
 H        -0.505041         0.173606         1.449680
 H        -0.211956         0.895139        -0.234953
 H        -1.000650        -0.711636        -0.052824
 H         4.198911        -1.077193         0.175334
 H         1.784194        -2.668144        -0.116931
 H         0.728857        -2.606361         2.150091
 H         2.069959        -3.630072         2.119825
 H         1.924514        -1.796164         3.993206
 H         3.560234        -1.909686         3.271252
 H         2.457469         1.157037         1.412627
