19
Iteration:   157
 C        -0.188297        -0.105095         0.340986
 C         1.296057        -0.506584         0.458513
 O         2.237699        -0.295065        -0.608273
 C         3.067021        -0.935783         0.443727
 C         1.924106        -1.973871         0.659843
 C         1.792555        -2.537755         2.009686
 C         2.520553        -1.634515         2.968460
 O         2.285972        -0.259108         2.789705
 C         2.429654         0.036798         1.424119
 H        -0.754921        -0.273267         1.312599
 H        -0.422240         0.927162         0.036573
 H        -0.640296        -0.638214        -0.485095
 H         4.154588        -1.031323         0.238521
 H         1.653048        -2.702331        -0.162791
 H         0.767936        -2.579872         2.306925
 H         2.190013        -3.514810         2.133442
 H         2.093182        -1.848506         3.929270
 H         3.604180        -1.866440         3.015299
 H         2.811754         1.063707         1.292766
