19
Iteration:  2697charge 0 multiplicity 1
 C        -0.181203        -0.161876         0.269714
 C         1.311440        -0.485855         0.458871
 O         2.285313        -0.155867        -0.606036
 C         3.111347        -0.904697         0.367369
 C         1.864504        -1.904131         0.638290
 C         1.875736        -2.599065         2.000969
 C         2.477304        -1.705950         3.078743
 O         2.276239        -0.310487         2.831362
 C         2.296283         0.028282         1.448730
 H        -0.677365        -0.360275         1.351636
 H        -0.401968         0.874795        -0.103753
 H        -0.450775        -0.955755        -0.527698
 H         4.271954        -1.021538         0.273832
 H         1.708654        -2.548791        -0.255316
 H         0.793751        -2.870864         2.153219
 H         2.430476        -3.547391         1.884457
 H         2.072266        -1.893636         4.140526
 H         3.641927        -1.705795         3.182605
 H         2.494638         1.082812         1.329436
