19
Iteration:  2263charge 0 multiplicity 1
 C        -0.105938        -0.149805         0.263292
 C         1.363561        -0.455838         0.451218
 O         2.234550        -0.257430        -0.670252
 C         3.053394        -0.860632         0.443535
 C         1.797122        -1.884890         0.686439
 C         1.888546        -2.578768         2.008181
 C         2.573673        -1.719498         2.994984
 O         2.187824        -0.294626         2.852191
 C         2.382862         0.056436         1.499716
 H        -0.839828        -0.187897         1.141736
 H        -0.420947         0.848030        -0.205452
 H        -0.552361        -0.814026        -0.530930
 H         4.064126        -1.149984         0.293435
 H         1.598008        -2.536571        -0.187211
 H         0.942467        -3.057506         2.240792
 H         2.468948        -3.528341         1.952304
 H         2.127984        -1.996244         3.955456
 H         3.662450        -1.900520         3.016840
 H         2.684822         1.065201         1.431651
