19
Iteration:  3586charge 0 multiplicity 1
 C        -0.129263        -0.079533         0.227248
 C         1.282845        -0.530105         0.463647
 O         2.245307        -0.265901        -0.556524
 C         3.022414        -0.951342         0.466726
 C         1.970194        -2.029077         0.618087
 C         1.888959        -2.646926         2.019045
 C         2.625645        -1.613105         2.894680
 O         2.188569        -0.233103         2.866053
 C         2.244200         0.091121         1.506020
 H        -0.822300        -0.169996         1.075710
 H        -0.175763         0.908883        -0.167813
 H        -0.546053        -0.490363        -0.657661
 H         4.112556        -1.027642         0.344467
 H         1.835996        -2.645000        -0.246616
 H         0.904520        -2.798055         2.166872
 H         2.264363        -3.622891         2.258897
 H         2.529432        -1.928140         4.008886
 H         3.692303        -1.530781         2.665452
 H         2.332721         1.181752         1.445327
