19
Iteration:  2479
 C        -0.243562        -0.291540         0.233435
 C         1.260417        -0.496273         0.494111
 O         2.405066        -0.069827        -0.571800
 C         3.075495        -0.971925         0.468975
 C         1.799009        -1.900441         0.612220
 C         1.782556        -2.516166         1.951737
 C         2.505822        -1.662802         2.992866
 O         2.358629        -0.271987         2.839553
 C         2.339247         0.013997         1.483535
 H        -0.665312        -0.312155         1.252892
 H        -0.497734         0.623202        -0.275028
 H        -0.625221        -1.163084        -0.254986
 H         4.175756        -1.065324         0.300026
 H         1.535683        -2.492946        -0.244897
 H         0.739335        -3.034785         2.312019
 H         2.389333        -3.378961         1.978055
 H         2.309291        -2.019317         3.970690
 H         3.552085        -2.000944         2.725542
 H         2.578930         1.015597         1.298701
