19
Iteration:   684charge 0 multiplicity 1
 C        -0.139691        -0.013905         0.388226
 C         1.237857        -0.568055         0.323455
 O         2.251559        -0.295669        -0.719367
 C         3.044961        -0.852806         0.389602
 C         2.031967        -1.938421         0.679515
 C         1.855884        -2.636293         2.055068
 C         2.471338        -1.667122         3.075474
 O         2.228141        -0.259405         2.829245
 C         2.368997        -0.006821         1.437987
 H        -0.328883         0.203889         1.445719
 H        -0.179654         1.044508         0.094957
 H        -1.041733        -0.636516         0.130910
 H         4.021808        -1.112844         0.154552
 H         1.910235        -2.715885        -0.105529
 H         0.829367        -2.708495         2.041557
 H         2.361825        -3.614169         2.062960
 H         2.244976        -1.849737         4.177224
 H         3.565945        -1.769942         2.989601
 H         2.417838         1.026790         1.237146
