19
Iteration:  3753
 C        -0.234074        -0.140125         0.183350
 C         1.285334        -0.584023         0.414301
 O         2.278050        -0.186874        -0.635757
 C         3.013915        -0.952188         0.341153
 C         1.902032        -1.946479         0.636157
 C         1.870921        -2.542120         2.034142
 C         2.630051        -1.640962         3.085550
 O         2.276897        -0.256466         2.928320
 C         2.296118         0.041995         1.506846
 H        -0.641058         0.125639         1.164236
 H        -0.282441         0.754559        -0.529562
 H        -0.786003        -0.982798        -0.320055
 H         4.169760        -0.934030         0.206490
 H         1.742874        -2.639502        -0.217481
 H         0.807435        -2.920797         2.400538
 H         2.358746        -3.617559         2.127690
 H         2.310535        -1.962302         4.087631
 H         3.686679        -1.832611         2.826365
 H         2.515982         1.062384         1.344937
