19
Iteration:  3179charge 0 multiplicity 1
 C        -0.239961        -0.357351         0.193622
 C         1.203937        -0.483369         0.425699
 O         2.313239        -0.145012        -0.517786
 C         3.072057        -0.824643         0.521740
 C         1.922766        -1.853614         0.669858
 C         1.726790        -2.548826         1.980798
 C         2.598027        -1.706615         2.968817
 O         2.375542        -0.317956         2.805765
 C         2.360762         0.067412         1.468814
 H        -0.760909        -0.790139         1.070880
 H        -0.376511         0.738583         0.076112
 H        -0.547835        -1.041853        -0.662905
 H         4.078938        -1.033956         0.193909
 H         1.789655        -2.480983        -0.229859
 H         0.634352        -2.345787         2.264709
 H         2.022183        -3.583518         1.945633
 H         2.355198        -1.948898         4.082543
 H         3.515738        -2.018891         2.820918
 H         2.476263         1.192052         1.269755
