19
Iteration:   908
 C        -0.102561        -0.128434         0.308474
 C         1.280835        -0.662137         0.433118
 O         2.165731        -0.242478        -0.671494
 C         3.098791        -0.776999         0.444936
 C         1.960976        -2.036578         0.630695
 C         1.786720        -2.506433         2.017536
 C         2.510679        -1.715702         3.028698
 O         2.358945        -0.264189         2.843701
 C         2.284703         0.087660         1.440905
 H        -0.602229        -0.024067         1.344894
 H        -0.024022         0.893010        -0.137513
 H        -0.718431        -0.770306        -0.372358
 H         4.235173        -0.883109         0.203700
 H         1.920112        -2.736652        -0.207913
 H         0.807485        -2.324452         2.385381
 H         1.993298        -3.649962         2.112136
 H         2.005006        -1.852933         3.978458
 H         3.679449        -2.068963         3.082831
 H         2.401698         1.174408         1.385899
