19
Iteration:  4006charge 0 multiplicity 1
 C        -0.127645        -0.090441         0.319585
 C         1.249156        -0.572118         0.472360
 O         2.201819        -0.317960        -0.659125
 C         3.102873        -0.922730         0.383598
 C         1.994917        -1.958182         0.675427
 C         1.896270        -2.558965         2.076559
 C         2.530918        -1.592790         3.018741
 O         2.156020        -0.242230         2.801453
 C         2.323543         0.032206         1.472959
 H        -0.505832         0.164945         1.273073
 H        -0.180406         0.712385        -0.402896
 H        -0.883929        -0.654909        -0.174830
 H         4.109616        -0.900922        -0.069440
 H         2.011846        -2.733068        -0.134967
 H         0.864583        -2.914572         2.147386
 H         2.546731        -3.470692         2.011038
 H         2.305268        -1.829941         4.042316
 H         3.740501        -1.773451         2.863474
 H         2.551356         1.105893         1.325846
