19
Iteration:  2458
 C        -0.170062        -0.195084         0.218617
 C         1.268425        -0.487212         0.472735
 O         2.228044        -0.187908        -0.587510
 C         3.044499        -0.883466         0.471671
 C         1.963110        -1.944842         0.567248
 C         1.784334        -2.612809         1.951392
 C         2.588917        -1.719111         3.006688
 O         2.276302        -0.248727         2.856419
 C         2.375668         0.071397         1.541455
 H        -0.715879        -0.151041         1.172794
 H        -0.254994         0.785034        -0.199879
 H        -0.691912        -0.913334        -0.355462
 H         4.105466        -0.999434         0.182579
 H         1.899853        -2.657243        -0.220967
 H         0.684809        -2.526939         2.325738
 H         2.022715        -3.672450         2.039731
 H         2.258204        -1.824852         4.015868
 H         3.651889        -2.055161         2.883515
 H         2.646038         1.048082         1.285028
