19
Iteration:  4086charge 0 multiplicity 1
 C        -0.118956        -0.356002         0.277534
 C         1.299665        -0.612861         0.527881
 O         2.191295        -0.223785        -0.615362
 C         3.097419        -0.803898         0.352321
 C         1.957759        -1.919706         0.650175
 C         1.693337        -2.454136         2.081070
 C         2.430871        -1.613958         3.094779
 O         2.447466        -0.260035         2.758424
 C         2.382299         0.066428         1.391983
 H        -0.782111        -0.980010         0.903235
 H        -0.421788         0.628142         0.525358
 H        -0.376607        -0.702772        -0.709238
 H         4.059723        -0.984451        -0.051963
 H         1.829836        -2.602824        -0.184858
 H         0.594401        -2.564319         2.050988
 H         1.936620        -3.497326         2.342454
 H         2.005533        -1.680760         4.141322
 H         3.571450        -1.940176         3.016850
 H         2.396052         1.188674         1.353432
