19
Iteration:   273charge 0 multiplicity 1
 C        -0.173258        -0.110061         0.314159
 C         1.280825        -0.546699         0.437839
 O         2.207245        -0.310388        -0.641784
 C         3.090788        -0.837101         0.412471
 C         1.984267        -1.991600         0.607640
 C         1.720926        -2.540450         2.046155
 C         2.559541        -1.673516         3.061777
 O         2.344106        -0.289847         2.797199
 C         2.355945         0.077315         1.438957
 H        -0.544524         0.011840         1.339785
 H        -0.170724         0.859924        -0.200456
 H        -0.720125        -0.738842        -0.347634
 H         4.142601        -0.881925         0.324907
 H         1.924961        -2.620687        -0.233449
 H         0.624583        -2.424421         2.258248
 H         1.843218        -3.661769         2.219304
 H         2.142201        -1.858743         4.052128
 H         3.618599        -1.971314         3.029465
 H         2.426555         1.139809         1.425366
