19
Iteration:    78
 C        -0.045428         0.020877         0.248657
 C         1.272455        -0.724770         0.464581
 O         2.172175        -0.401796        -0.682945
 C         3.060854        -0.733921         0.358084
 C         1.955809        -1.982707         0.635001
 C         1.710114        -2.498349         2.098213
 C         2.469229        -1.664828         3.058725
 O         2.432915        -0.239601         2.855156
 C         2.312540         0.001348         1.439913
 H        -0.818967        -0.725991         0.518193
 H        -0.116289         0.801411         1.015762
 H        -0.413271         0.257580        -0.675164
 H         4.116930        -0.696851         0.110824
 H         1.867233        -2.717332        -0.133741
 H         0.705574        -2.575425         2.285561
 H         2.118996        -3.472325         2.399261
 H         2.260165        -1.919290         4.070102
 H         3.428837        -1.979200         2.850238
 H         2.279621         1.060864         1.348574
