19
Iteration:  4666charge 0 multiplicity 1
 C        -0.200735        -0.074912         0.499686
 C         1.281195        -0.539053         0.415003
 O         2.291683        -0.339843        -0.747106
 C         3.101751        -0.845216         0.388185
 C         2.031445        -1.862991         0.695820
 C         1.895654        -2.618159         2.037580
 C         2.507443        -1.653255         3.084169
 O         2.149022        -0.311910         2.731757
 C         2.330173         0.033080         1.410771
 H        -0.514275        -0.140590         1.521630
 H        -0.211213         0.945992         0.041683
 H        -0.810401        -0.758082        -0.107248
 H         4.078373        -0.921496         0.091039
 H         2.053751        -2.389100        -0.265873
 H         0.743509        -2.750789         1.994459
 H         2.331176        -3.580806         2.180192
 H         1.994678        -1.818340         4.046402
 H         3.551821        -1.779090         3.202848
 H         2.302266         1.129813         1.344346
