19
Iteration:  3989
 C        -0.194864         0.000017         0.310796
 C         1.256268        -0.632509         0.464000
 O         2.266686        -0.273094        -0.629925
 C         3.058993        -0.933628         0.385595
 C         1.975772        -2.020587         0.558278
 C         1.993455        -2.547441         2.071195
 C         2.661716        -1.560596         3.064932
 O         2.069178        -0.275693         2.830135
 C         2.306028        -0.022312         1.375048
 H        -0.622730         0.274308         1.355461
 H        -0.019105         0.945010        -0.305691
 H        -0.903048        -0.707580        -0.227733
 H         4.128588        -1.125599         0.393693
 H         1.594767        -2.812847        -0.086866
 H         0.993442        -2.653679         2.565973
 H         2.266240        -3.605977         2.185735
 H         2.358407        -1.815677         4.127226
 H         3.642152        -1.413376         3.008190
 H         2.429132         1.083994         1.202990
