19
Iteration:   732charge 0 multiplicity 1
 C        -0.202574        -0.175217         0.236784
 C         1.305326        -0.428418         0.458889
 O         2.201045        -0.210795        -0.691075
 C         3.137812        -1.012997         0.347424
 C         1.895836        -1.940969         0.631902
 C         1.790521        -2.598105         2.086021
 C         2.501236        -1.685118         3.051333
 O         2.356497        -0.241736         2.899075
 C         2.338561         0.095574         1.478792
 H        -0.893436        -0.490712         1.047505
 H        -0.461697         0.880311         0.174872
 H        -0.557244        -0.759691        -0.570005
 H         4.283008        -1.057127         0.146085
 H         1.555180        -2.578458        -0.204896
 H         0.667664        -2.742371         2.366309
 H         2.420611        -3.604661         2.071789
 H         2.298943        -1.945247         4.083450
 H         3.693356        -1.839607         2.923173
 H         2.806077         1.114182         1.326571
