19
Iteration:  2476
 C        -0.254462        -0.277838         0.247509
 C         1.258606        -0.520129         0.471205
 O         2.385390        -0.067289        -0.550319
 C         3.067147        -0.975609         0.477409
 C         1.809077        -1.909538         0.606571
 C         1.767751        -2.541088         1.962444
 C         2.510926        -1.654638         2.997256
 O         2.361478        -0.263439         2.846302
 C         2.359922         0.015367         1.458302
 H        -0.669147        -0.274345         1.292195
 H        -0.469241         0.639002        -0.359741
 H        -0.547783        -1.165299        -0.356461
 H         4.189982        -1.139148         0.334520
 H         1.612358        -2.399868        -0.376561
 H         0.757916        -3.005413         2.233921
 H         2.340014        -3.439601         1.940193
 H         2.373799        -2.092553         3.981026
 H         3.568146        -1.788240         2.777847
 H         2.603403         1.117453         1.340800
