19
Iteration:  2817
 C        -0.139384        -0.228354         0.210319
 C         1.234303        -0.533675         0.489460
 O         2.201381        -0.186163        -0.586475
 C         3.084979        -0.774502         0.434407
 C         2.035789        -1.917806         0.630701
 C         1.696018        -2.563217         2.013622
 C         2.601344        -1.724578         3.002182
 O         2.312330        -0.353086         2.854576
 C         2.299086         0.068481         1.465800
 H        -0.843499        -0.278963         1.064639
 H        -0.302788         0.784638        -0.187796
 H        -0.415106        -0.796947        -0.650061
 H         4.208412        -0.786218         0.215464
 H         2.165501        -2.541807        -0.267479
 H         0.638452        -2.479017         2.228779
 H         1.941747        -3.702744         2.069527
 H         2.415435        -1.762212         4.112290
 H         3.692424        -2.059509         2.927886
 H         2.466435         1.122750         1.429715
