19
Iteration:  1634
 C        -0.173010        -0.238837         0.331922
 C         1.306005        -0.610465         0.504536
 O         2.274852        -0.223038        -0.669875
 C         3.114487        -0.745116         0.381791
 C         2.011637        -1.909367         0.624136
 C         1.610137        -2.572610         2.028117
 C         2.477365        -1.703311         3.076708
 O         2.405218        -0.269089         2.789864
 C         2.302710         0.066972         1.414890
 H        -0.648951        -0.498138         1.250930
 H        -0.368505         0.839067         0.118008
 H        -0.626026        -0.675540        -0.524277
 H         4.140616        -0.830123         0.262879
 H         2.093520        -2.642182        -0.104639
 H         0.608011        -2.622115         2.456133
 H         2.012703        -3.605847         2.171989
 H         2.281824        -1.912837         4.161019
 H         3.464264        -1.963834         2.868734
 H         2.308880         1.129254         1.255611
