19
Iteration:  4997
 C        -0.167786        -0.275733         0.281542
 C         1.288007        -0.476618         0.510284
 O         2.237570        -0.145472        -0.669708
 C         3.073631        -0.862195         0.439311
 C         1.848976        -1.849080         0.625666
 C         1.873732        -2.546414         1.955173
 C         2.490466        -1.659631         3.104736
 O         2.264167        -0.353004         2.787530
 C         2.425689         0.014468         1.498476
 H        -0.590665         0.666093         0.672112
 H        -0.149838        -0.212160        -0.776873
 H        -0.721242        -1.155353         0.589326
 H         4.166552        -0.931361         0.228317
 H         1.862492        -2.612687        -0.200386
 H         0.780541        -2.848365         2.325680
 H         2.305111        -3.538854         1.817633
 H         2.141687        -2.065660         4.060285
 H         3.571182        -1.750962         3.105590
 H         2.546042         1.082223         1.496466
