19
Iteration:   670charge 0 multiplicity 1
 C        -0.165494        -0.049017         0.419709
 C         1.300823        -0.509289         0.405054
 O         2.253139        -0.280823        -0.678646
 C         3.076659        -0.978721         0.403086
 C         1.892540        -1.982497         0.602682
 C         1.849901        -2.568247         2.017997
 C         2.506590        -1.650676         3.065391
 O         2.180707        -0.268189         2.811578
 C         2.413921         0.107531         1.421665
 H        -0.335227        -0.057798         1.510216
 H        -0.368042         0.810325        -0.258057
 H        -0.809983        -0.839054        -0.064829
 H         4.157329        -1.088248         0.119357
 H         1.853746        -2.670641        -0.268528
 H         0.982675        -3.071788         2.405027
 H         2.448153        -3.412156         2.020067
 H         2.170001        -1.857695         4.072474
 H         3.515368        -1.787118         3.025211
 H         2.872330         1.119871         1.465959
