19
Iteration:  2388
 C        -0.114022        -0.145932         0.312918
 C         1.274526        -0.567735         0.543103
 O         2.316210        -0.203720        -0.597001
 C         3.018916        -0.980971         0.404402
 C         1.845424        -1.899482         0.555900
 C         1.903401        -2.596461         1.929488
 C         2.503702        -1.639384         3.060512
 O         2.193316        -0.193045         2.838988
 C         2.405148         0.012484         1.457257
 H        -0.934300        -0.528383         0.951416
 H        -0.296975         0.951912         0.395217
 H        -0.635141        -0.492970        -0.639906
 H         4.106743        -1.272099         0.157649
 H         1.522044        -2.652021        -0.266309
 H         0.888836        -3.170082         2.370015
 H         2.617381        -3.402201         1.722199
 H         2.200167        -2.039082         4.067789
 H         3.567934        -1.577275         2.997766
 H         2.699331         1.134337         1.397988
