19
Iteration:    41
 C        -0.255294        -0.089572         0.257979
 C         1.222472        -0.453356         0.530782
 O         2.315898        -0.307831        -0.612810
 C         3.055802        -0.997463         0.389418
 C         1.828230        -1.920471         0.672349
 C         1.839025        -2.495887         2.080396
 C         2.589408        -1.618582         3.042092
 O         2.245230        -0.278919         2.758556
 C         2.481560        -0.012716         1.404796
 H        -0.763388        -0.904505         0.720196
 H        -0.606607         0.851379         0.654985
 H        -0.395424        -0.026198        -0.886889
 H         4.087279        -1.411498         0.265351
 H         1.446250        -2.535301        -0.170567
 H         0.756692        -2.583862         2.387486
 H         2.302959        -3.558390         2.067625
 H         2.272343        -1.856127         4.142847
 H         3.763752        -1.752421         2.949901
 H         2.957415         1.010828         1.189382
