19
Iteration:   286charge 0 multiplicity 1
 C        -0.076607        -0.072977         0.305869
 C         1.245772        -0.687839         0.489325
 O         2.224351        -0.311736        -0.697024
 C         3.123723        -0.748042         0.433954
 C         2.000963        -1.919913         0.721093
 C         1.635433        -2.587496         2.011884
 C         2.501934        -1.680420         3.074118
 O         2.415689        -0.264865         2.795082
 C         2.251137         0.023701         1.395198
 H        -0.675005        -0.223904         1.247040
 H         0.029283         1.001633         0.223059
 H        -0.758634        -0.566747        -0.276950
 H         4.137614        -0.806503         0.071964
 H         1.891159        -2.537525        -0.134496
 H         0.564493        -2.557706         2.175030
 H         2.163021        -3.679487         1.965075
 H         2.363749        -1.725825         4.113099
 H         3.481614        -1.905616         2.901170
 H         2.310941         1.086613         1.153226
