19
Iteration:  1846charge 0 multiplicity 1
 C        -0.157456        -0.137157         0.307022
 C         1.237479        -0.558090         0.374761
 O         2.245151        -0.217932        -0.661059
 C         3.046990        -0.916518         0.400232
 C         1.940051        -1.928056         0.664188
 C         1.866583        -2.569593         2.005603
 C         2.459082        -1.686468         3.074030
 O         2.312820        -0.244449         2.847510
 C         2.355179         0.031840         1.493690
 H        -0.633172        -0.425153         1.244789
 H        -0.275307         0.930700         0.165218
 H        -0.727732        -0.559293        -0.565975
 H         4.125266        -1.131959         0.103311
 H         1.983363        -2.628061        -0.164134
 H         0.772007        -2.846538         2.064634
 H         2.512225        -3.590465         1.939985
 H         2.086144        -1.742898         4.025006
 H         3.646101        -1.753101         3.174564
 H         2.540903         1.103678         1.381322
