19
Iteration:  1109charge 0 multiplicity 1
 C         0.009639         0.449595         0.009167
 C         1.437548         0.123780         0.013671
 O         1.834947        -1.208472         0.105582
 C         3.115610        -0.535000         0.006597
 C         2.516427         0.408904         1.087223
 C         2.971552         1.886409         1.174217
 O         2.749538         2.601653        -0.076958
 C         3.079217         1.841340        -1.237816
 C         2.463125         0.404741        -1.085301
 H        -0.449612        -0.092217         0.763865
 H        -0.276631         1.464577        -0.101489
 H        -0.250001        -0.041709        -0.858482
 H         4.053691        -1.166896        -0.058237
 H         2.217281        -0.013525         2.036124
 H         2.351594         2.235268         1.922767
 H         4.006955         2.044756         1.528871
 H         2.623974         2.319425        -2.109534
 H         4.219101         1.726655        -1.366367
 H         2.278888        -0.168071        -1.919993
