19
Iteration:  4681
 C        -0.028465         0.550385        -0.133125
 C         1.362536         0.227613         0.050066
 O         1.952866        -1.385363         0.181745
 C         3.123021        -0.514609         0.073230
 C         2.586505         0.498984         1.077128
 C         3.027892         1.930668         1.133424
 O         2.685058         2.657976        -0.156940
 C         2.967300         1.719898        -1.190765
 C         2.464942         0.279110        -1.033208
 H        -0.545120         0.416972         0.868462
 H        -0.321577         1.691905        -0.288835
 H        -0.568400        -0.214977        -0.662774
 H         4.108606        -1.040933         0.189890
 H         2.492374        -0.028087         2.008479
 H         2.576534         2.463352         2.010842
 H         4.105944         2.008113         1.229745
 H         2.659793         2.120127        -2.123739
 H         4.065418         1.694485        -1.415781
 H         2.418553        -0.226821        -2.025279
