19
Iteration:  3941charge 0 multiplicity 1
 C        -0.056239         0.317998        -0.132978
 C         1.378926         0.093128         0.091159
 O         1.855288        -1.291321         0.247572
 C         3.070711        -0.411835         0.008480
 C         2.500230         0.530736         1.162192
 C         3.085468         1.937450         1.116251
 O         2.813076         2.622235        -0.159768
 C         3.033601         1.774504        -1.256796
 C         2.431498         0.358119        -1.041778
 H        -0.553301         0.047305         0.795028
 H        -0.070759         1.439788        -0.267017
 H        -0.494930        -0.089820        -1.035915
 H         4.009877        -0.937557        -0.070881
 H         2.316529         0.303075         2.185644
 H         2.919728         2.561572         1.931299
 H         4.128995         1.869909         1.236517
 H         2.421331         2.305519        -2.012204
 H         4.187413         1.752274        -1.658232
 H         2.353496        -0.197700        -1.953106
