19
Iteration:  2634charge 0 multiplicity 1
 C        -0.050857         0.406071         0.104113
 C         1.450269         0.111711         0.023285
 O         1.842384        -1.310647         0.060719
 C         3.165301        -0.498523         0.087688
 C         2.472401         0.452690         1.099446
 C         2.913500         1.869287         1.039580
 O         2.742734         2.634750        -0.120475
 C         3.089116         1.864742        -1.250621
 C         2.570091         0.379137        -1.057141
 H        -0.625573         0.326965         1.050885
 H        -0.105055         1.585227         0.049721
 H        -0.628241         0.062061        -0.765716
 H         4.224178        -1.071635         0.330583
 H         2.128236         0.070392         2.051163
 H         2.332913         2.414251         1.727520
 H         3.976830         1.834319         1.320781
 H         2.659525         2.435368        -1.994706
 H         4.249646         1.897411        -1.504442
 H         2.353677        -0.213310        -1.961859
