19
Iteration:   170charge 0 multiplicity 1
 C        -0.069430         0.442640         0.050243
 C         1.410784         0.168819        -0.021856
 O         1.842018        -1.277411         0.003242
 C         3.108622        -0.472499         0.125992
 C         2.449528         0.499097         1.102564
 C         3.061977         1.869491         1.116652
 O         2.746000         2.491110        -0.067463
 C         3.040357         1.858566        -1.285328
 C         2.583721         0.372390        -1.041092
 H        -0.377294        -0.013111         1.039404
 H        -0.192745         1.548479         0.037157
 H        -0.679736         0.091063        -0.734743
 H         4.077789        -0.968070         0.200798
 H         2.306789         0.033333         2.110009
 H         2.549817         2.528242         1.804743
 H         4.119457         1.922425         1.413602
 H         2.458814         2.408896        -2.011468
 H         4.101833         1.883199        -1.499401
 H         2.444525        -0.168706        -1.995117
