19
Iteration:  3054
 C        -0.084122         0.465875         0.053583
 C         1.409979         0.137684         0.034391
 O         1.899990        -1.265902         0.050839
 C         3.093668        -0.472211         0.081906
 C         2.524176         0.485785         1.173646
 C         2.983759         1.964402         1.161837
 O         2.698821         2.585288        -0.156124
 C         3.002141         1.719338        -1.305726
 C         2.673511         0.312155        -1.061998
 H        -0.661139        -0.064675         0.890018
 H        -0.191004         1.516314         0.289527
 H        -0.646984         0.295949        -0.939086
 H         4.164298        -0.937949         0.249360
 H         2.204648         0.158076         2.156280
 H         2.605038         2.650704         1.923038
 H         4.076028         1.770074         1.166176
 H         2.405554         2.020937        -2.139024
 H         4.093320         1.801992        -1.631026
 H         2.378992        -0.128104        -2.026458
