19
Iteration:  2305
 C        -0.107439         0.497656         0.096669
 C         1.404826         0.157480        -0.022242
 O         1.909640        -1.329619         0.055725
 C         3.159575        -0.452025         0.095967
 C         2.422252         0.423099         1.082210
 C         2.852534         1.880855         1.094539
 O         2.828558         2.581459        -0.105688
 C         3.094388         1.837110        -1.233967
 C         2.609386         0.359294        -1.119106
 H        -0.588187         0.255098         1.156961
 H        -0.362958         1.522610         0.160396
 H        -0.564814        -0.179146        -0.687528
 H         4.188442        -0.909749         0.420854
 H         2.273100         0.025540         2.119847
 H         2.292173         2.502732         1.829183
 H         3.923728         1.801808         1.482325
 H         2.456555         2.254719        -2.075527
 H         4.119742         1.977479        -1.582432
 H         2.475437        -0.173289        -2.052633
