19
Iteration:  3785charge 0 multiplicity 1
 C        -0.129697         0.383680        -0.031684
 C         1.348236         0.129067        -0.019944
 O         1.868351        -1.278728         0.137342
 C         3.093133        -0.444508         0.188213
 C         2.545222         0.468223         1.145845
 C         3.087667         1.956195         1.063865
 O         2.763020         2.610365        -0.171401
 C         3.028071         1.739671        -1.244946
 C         2.569435         0.374242        -1.060389
 H        -0.595039         0.088322         0.929455
 H        -0.435763         1.503878         0.090992
 H        -0.672256         0.052328        -0.956932
 H         4.200539        -0.806464         0.217212
 H         2.309435         0.080303         2.089513
 H         2.634846         2.479960         1.848018
 H         4.280579         1.891608         1.120039
 H         2.342164         2.137476        -2.043875
 H         4.049606         1.853288        -1.425905
 H         2.525227        -0.314880        -1.908263
