19
Iteration:  3964charge 0 multiplicity 1
 C        -0.133036         0.412112        -0.042151
 C         1.374014         0.154557         0.071852
 O         1.913958        -1.329956         0.163099
 C         3.108071        -0.546364         0.177218
 C         2.517594         0.510392         1.018982
 C         3.071405         1.941569         1.087539
 O         2.835437         2.680125        -0.154628
 C         2.944976         1.796753        -1.278560
 C         2.504538         0.313107        -1.063676
 H        -0.539505        -0.030348         0.901221
 H        -0.430936         1.440007        -0.175487
 H        -0.561177        -0.094994        -0.936620
 H         3.981087        -1.054358         0.517168
 H         2.278696         0.307747         2.113636
 H         2.702796         2.531038         1.935935
 H         4.059080         1.960964         1.442546
 H         2.480779         2.426703        -2.050095
 H         4.121523         1.628955        -1.570495
 H         2.514625        -0.152804        -2.061445
