19
Iteration:  1639
 C        -0.167587         0.368147        -0.025791
 C         1.397756         0.125834         0.021247
 O         1.886974        -1.331117         0.120187
 C         3.107916        -0.494911         0.042800
 C         2.502560         0.460977         1.041150
 C         3.036958         1.908017         1.164301
 O         2.812016         2.641005        -0.067520
 C         3.085682         1.821031        -1.214934
 C         2.494403         0.424711        -1.115930
 H        -0.759651         0.027170         0.864258
 H        -0.217646         1.448805         0.015148
 H        -0.650382        -0.045559        -0.939709
 H         4.196602        -0.811852         0.094630
 H         2.361439        -0.004696         2.020918
 H         2.580802         2.484698         1.897367
 H         4.102933         1.987265         1.628992
 H         2.524226         2.371509        -1.930418
 H         4.164473         1.756438        -1.424582
 H         2.268648         0.011046        -2.116347
