19
Iteration:  3267charge 0 multiplicity 1
 C        -0.127963         0.444985         0.058131
 C         1.351254         0.153223         0.001910
 O         1.885283        -1.353202         0.112420
 C         3.124797        -0.400629         0.147647
 C         2.460477         0.483024         1.109029
 C         3.019096         1.918136         1.096921
 O         2.751520         2.586246        -0.138286
 C         3.044289         1.792744        -1.318980
 C         2.634685         0.334248        -1.033119
 H        -0.652483        -0.128086         0.776339
 H        -0.289748         1.572554         0.285747
 H        -0.352484         0.266358        -0.953233
 H         3.999988        -0.950578         0.271288
 H         2.408465         0.036752         2.101632
 H         2.684843         2.637300         1.819962
 H         4.158488         1.799954         0.978537
 H         2.407515         2.173426        -2.096225
 H         4.076335         1.928661        -1.653238
 H         2.534391        -0.225473        -1.945830
