19
Iteration:   513
 C        -0.085271         0.496104         0.104437
 C         1.448705         0.114562        -0.054263
 O         1.846293        -1.318625         0.012484
 C         3.156652        -0.549052         0.133739
 C         2.445917         0.408012         1.067086
 C         2.991387         1.935335         1.153586
 O         2.776514         2.643303        -0.056536
 C         3.025534         1.836771        -1.341683
 C         2.589229         0.337861        -1.029988
 H        -0.471585         0.112639         1.077637
 H        -0.216473         1.641826         0.206155
 H        -0.736862         0.106752        -0.763908
 H         4.186835        -0.960217         0.139717
 H         2.025879        -0.015666         2.002061
 H         2.447088         2.630728         1.839586
 H         4.129843         1.833644         1.302919
 H         2.317745         2.375547        -1.935474
 H         4.067928         1.961448        -1.665735
 H         2.666348        -0.288962        -1.988213
