19
Iteration:  1391
 C        -0.051268         0.399604        -0.001841
 C         1.436102         0.100767         0.063012
 O         1.850305        -1.271518         0.049174
 C         3.145317        -0.461823         0.000364
 C         2.475859         0.466971         1.113921
 C         3.014453         1.903216         1.155662
 O         2.727096         2.591549        -0.088118
 C         3.096491         1.797140        -1.205183
 C         2.470952         0.401561        -1.066666
 H        -0.433703         0.236942         0.917732
 H        -0.265441         1.480100        -0.269552
 H        -0.568789        -0.136148        -0.681360
 H         3.976455        -1.093055         0.003622
 H         2.203686         0.087108         2.080594
 H         2.506341         2.609320         1.884898
 H         4.122715         1.892744         1.351548
 H         2.948009         2.381255        -2.085149
 H         4.216484         1.675551        -1.341244
 H         2.244024         0.005907        -2.041468
