19
Iteration:  3709charge 0 multiplicity 1
 C         0.000176         0.406836        -0.019814
 C         1.426509         0.154879         0.056974
 O         1.876174        -1.340868         0.171237
 C         3.116505        -0.432499         0.057194
 C         2.461672         0.544291         1.124300
 C         3.032709         1.927653         1.140669
 O         2.810906         2.600976        -0.164372
 C         3.004690         1.755144        -1.317660
 C         2.453060         0.395896        -1.038125
 H        -0.500730         0.229658         0.955843
 H        -0.271693         1.466358        -0.316919
 H        -0.527591        -0.279662        -0.712325
 H         3.971823        -1.216059        -0.056745
 H         2.336211        -0.017841         2.013746
 H         2.244200         2.459342         1.793083
 H         3.992521         2.080777         1.677601
 H         2.497079         2.260039        -2.205773
 H         4.145880         1.686495        -1.501323
 H         2.424378        -0.303238        -1.890619
