19
Iteration:  3355charge 0 multiplicity 1
 C        -0.033813         0.392675         0.075845
 C         1.451509         0.115872         0.031852
 O         1.883787        -1.308717         0.059937
 C         3.102521        -0.378411         0.110121
 C         2.352820         0.510826         1.114681
 C         3.028723         1.961832         1.079702
 O         2.796726         2.579089        -0.135063
 C         3.048559         1.761915        -1.280077
 C         2.525490         0.337598        -1.082219
 H        -0.434782         0.468389         1.076614
 H        -0.273009         1.409912        -0.354126
 H        -0.579670        -0.412468        -0.382001
 H         4.081783        -0.958022         0.111097
 H         2.160167         0.100264         2.096591
 H         2.552706         2.602413         1.809339
 H         4.113242         1.828089         1.491961
 H         2.641327         2.394373        -2.062977
 H         4.192831         1.731536        -1.427965
 H         2.194208        -0.367006        -1.853020
