19
Iteration:  2624
 C         0.041309         0.487998         0.069540
 C         1.431653         0.076958         0.017499
 O         1.852673        -1.309338         0.013524
 C         3.115530        -0.460956         0.125083
 C         2.427426         0.466868         1.109684
 C         2.915366         1.926399         1.129773
 O         2.739060         2.585094        -0.110396
 C         3.044870         1.803608        -1.276774
 C         2.553245         0.372192        -1.063810
 H        -0.296428         0.120709         1.048708
 H        -0.087263         1.623920        -0.100508
 H        -0.557399        -0.072719        -0.657288
 H         4.206798        -0.987615         0.001435
 H         2.367914         0.158281         2.128951
 H         2.529711         2.421743         1.966612
 H         3.989666         1.900783         1.343270
 H         2.479934         2.206230        -2.107389
 H         4.163496         1.970096        -1.549031
 H         2.623044        -0.281023        -1.952006
