19
Iteration:  2107charge 0 multiplicity 1
 C        -0.112908         0.362755         0.079567
 C         1.382606         0.118834        -0.013700
 O         1.829698        -1.319935        -0.040207
 C         3.065173        -0.512376         0.097208
 C         2.503902         0.505046         1.096711
 C         3.077505         1.991466         1.113926
 O         2.714374         2.643914        -0.102640
 C         3.173616         1.815842        -1.159628
 C         2.533392         0.352137        -1.066769
 H        -0.404290        -0.146656         1.042588
 H        -0.271526         1.333073        -0.220968
 H        -0.674235        -0.216501        -0.695897
 H         4.024377        -1.100453         0.139246
 H         2.197081         0.103540         2.110507
 H         2.541543         2.594028         1.968347
 H         4.137883         2.263403         1.443461
 H         2.777550         2.293598        -2.126439
 H         4.285798         1.781848        -1.236418
 H         2.443067        -0.141866        -2.004661
