19
Iteration:   209charge 0 multiplicity 1
 C         0.006998         0.438462         0.055504
 C         1.424916         0.141676         0.021356
 O         1.803407        -1.328097         0.078799
 C         3.100659        -0.546245         0.029691
 C         2.512421         0.464898         1.016953
 C         2.938992         1.892219         1.070536
 O         2.825596         2.621660        -0.089016
 C         3.061298         1.840086        -1.164018
 C         2.526138         0.442283        -1.069289
 H        -0.355599         0.356945         1.075857
 H        -0.226888         1.499096        -0.112909
 H        -0.714124        -0.369220        -0.536483
 H         4.101151        -1.193200         0.096610
 H         2.273584         0.137983         2.065356
 H         2.206747         2.351339         1.882569
 H         3.994528         1.957195         1.489463
 H         2.584985         2.376599        -2.108299
 H         4.184198         1.867307        -1.337928
 H         2.278549        -0.209985        -1.976454
