19
Iteration:  3285
 C        -0.002688         0.421616        -0.030727
 C         1.427187         0.140210         0.024032
 O         1.918145        -1.286620         0.054935
 C         3.119255        -0.490615         0.102125
 C         2.445713         0.585014         1.137017
 C         3.057697         1.963938         1.126132
 O         2.798369         2.595232        -0.125517
 C         2.957570         1.723479        -1.242694
 C         2.427980         0.311861        -1.043717
 H        -0.463550        -0.088704         0.852947
 H        -0.176833         1.458405         0.199406
 H        -0.636758         0.054174        -0.872583
 H         4.214664        -1.052866         0.180355
 H         2.102684         0.190178         2.126505
 H         2.513914         2.613318         1.855186
 H         4.171424         2.143258         1.394673
 H         2.527914         2.152139        -2.168841
 H         4.078521         1.551145        -1.452328
 H         2.258883        -0.272855        -1.947220
