19
Iteration:  2202charge 0 multiplicity 1
 C        -0.065686         0.486873        -0.028021
 C         1.454977         0.082306        -0.017354
 O         1.889014        -1.323349         0.058859
 C         3.118926        -0.580028         0.231024
 C         2.458432         0.430055         1.114760
 C         3.041148         1.897413         1.158905
 O         2.768139         2.657790        -0.084065
 C         2.946733         1.909493        -1.313974
 C         2.587706         0.381353        -1.110117
 H        -0.591879        -0.045416         0.731704
 H        -0.215963         1.640755        -0.115939
 H        -0.629251         0.182275        -0.936984
 H         3.998216        -1.265881         0.535622
 H         2.208802         0.039884         2.103845
 H         2.761684         2.448667         1.976057
 H         4.158631         1.756032         1.329497
 H         2.210127         2.242410        -1.962749
 H         3.917336         2.169607        -1.790170
 H         2.410370        -0.257710        -1.982807
