19
Iteration:  4758charge 0 multiplicity 1
 C        -0.036530         0.338135         0.079625
 C         1.376453         0.075896         0.003451
 O         1.821448        -1.328309         0.187016
 C         3.124702        -0.428253         0.098397
 C         2.471681         0.528591         1.101211
 C         2.923668         1.989264         1.100123
 O         2.871208         2.667121        -0.148066
 C         3.128889         1.759503        -1.352922
 C         2.458916         0.358255        -1.081507
 H        -0.590675        -0.311752         0.706922
 H        -0.215083         1.439404         0.156789
 H        -0.557651         0.256584        -0.837148
 H         4.084985        -1.024951         0.006718
 H         2.452463         0.090196         2.067846
 H         2.333224         2.539548         1.895827
 H         4.013695         2.117447         1.450012
 H         2.735191         2.248933        -2.186654
 H         4.251178         1.454498        -1.314188
 H         2.282736        -0.134614        -2.041560
