19
Iteration:  1497
 C         0.067391         0.464910        -0.075489
 C         1.433691         0.097851         0.000400
 O         1.811516        -1.349960         0.090709
 C         3.130580        -0.447487         0.128047
 C         2.507701         0.480799         1.073284
 C         3.089354         1.953144         1.150911
 O         2.736899         2.616254        -0.028070
 C         2.990357         1.819952        -1.234717
 C         2.418492         0.354858        -1.080896
 H        -0.585672        -0.270315         0.512578
 H        -0.286697         1.492483         0.166845
 H        -0.166945         0.129536        -1.156837
 H         4.155285        -0.980312        -0.038661
 H         2.240798        -0.039657         2.006561
 H         2.814116         2.490721         2.014789
 H         4.151517         1.821627         1.242179
 H         2.281316         2.320929        -1.801839
 H         4.038380         1.722543        -1.502029
 H         2.176041        -0.084178        -2.071869
