19
Iteration:   390
 C        -0.164121         0.532791         0.139075
 C         1.440203         0.181566        -0.046870
 O         1.941153        -1.307528         0.010166
 C         3.156645        -0.480527         0.083936
 C         2.439866         0.354961         1.062584
 C         2.941510         1.840359         1.166981
 O         2.798206         2.594874        -0.094426
 C         3.037984         1.831342        -1.308438
 C         2.528957         0.377692        -1.067275
 H        -0.224172         0.363728         1.201927
 H        -0.236627         1.682877        -0.138828
 H        -0.770194        -0.092988        -0.362846
 H         4.091316        -0.964053         0.305737
 H         2.231824        -0.082502         2.066507
 H         2.455235         2.404143         1.940796
 H         4.012544         2.079854         1.354478
 H         2.718065         2.486236        -2.143334
 H         4.098527         1.681022        -1.386853
 H         2.467437        -0.266188        -1.949804
