19
Iteration:   454charge 0 multiplicity 1
 C        -0.061292         0.360111        -0.147239
 C         1.427593         0.216872         0.120279
 O         1.780906        -1.234564         0.161500
 C         3.042936        -0.567037        -0.045473
 C         2.656313         0.483094         1.097127
 C         3.117905         1.904583         1.181881
 O         2.723248         2.589925        -0.041381
 C         3.008874         1.836624        -1.234848
 C         2.512616         0.350404        -1.081295
 H        -0.645002        -0.226546         0.590637
 H        -0.529434         1.476741        -0.050605
 H        -0.405889         0.104659        -1.086218
 H         4.035224        -0.980449        -0.034047
 H         2.731096        -0.136840         2.030116
 H         2.597127         2.470051         1.953981
 H         4.156750         1.986507         1.529492
 H         2.335671         2.390314        -1.989254
 H         4.049724         1.974282        -1.637206
 H         2.392564        -0.208303        -2.000248
