19
Iteration:   926
 C         0.045225         0.512133         0.141418
 C         1.421545         0.115698        -0.038276
 O         1.861498        -1.328933        -0.004552
 C         3.165117        -0.541789         0.105396
 C         2.426518         0.476698         1.042449
 C         2.888699         1.884131         1.126522
 O         2.733842         2.612517        -0.100773
 C         3.091391         1.808196        -1.239741
 C         2.535261         0.381942        -1.059334
 H        -0.246400         0.376282         1.248969
 H        -0.015459         1.552958        -0.073687
 H        -0.625810         0.029058        -0.565198
 H         4.024481        -1.111026         0.196430
 H         2.136660         0.095130         1.986928
 H         2.451865         2.519289         1.878117
 H         3.983824         1.835284         1.361154
 H         2.462206         2.220688        -1.936843
 H         4.115994         2.013587        -1.479619
 H         2.546294        -0.165379        -1.971303
