19
Iteration:  1116charge 0 multiplicity 1
 C        -0.026267         0.414764         0.004999
 C         1.417009         0.159616        -0.000305
 O         1.833826        -1.234508         0.094010
 C         3.083619        -0.548476         0.062141
 C         2.556367         0.440627         1.080735
 C         2.993327         1.875027         1.177108
 O         2.748721         2.582060        -0.056366
 C         3.042862         1.837312        -1.242410
 C         2.549940         0.411251        -1.110204
 H        -0.587864        -0.039332         0.842730
 H        -0.276420         1.570946         0.078986
 H        -0.407141        -0.021956        -0.970745
 H         4.007025        -1.045874         0.045903
 H         2.191194         0.018869         2.068833
 H         2.347496         2.381169         1.982499
 H         4.080449         1.910520         1.306368
 H         2.614714         2.270024        -2.196035
 H         4.202017         2.012813        -1.412186
 H         2.351652        -0.148014        -2.103287
