19
Iteration:  3504
 C        -0.210529         0.415955         0.038850
 C         1.391808         0.191816         0.021193
 O         1.876445        -1.315120         0.180420
 C         3.181284        -0.471041         0.037811
 C         2.598037         0.515131         1.094937
 C         2.951840         1.949405         1.067806
 O         2.781671         2.618417        -0.164453
 C         3.069888         1.696491        -1.231826
 C         2.532589         0.368218        -1.049823
 H        -0.479738         0.201077         1.060865
 H        -0.608006         1.528259        -0.259840
 H        -0.685550        -0.231008        -0.655879
 H         4.073768        -1.050326        -0.074314
 H         2.525718         0.067935         2.148105
 H         2.284586         2.362327         1.838079
 H         3.980552         1.931284         1.280714
 H         2.794746         2.197637        -2.161314
 H         4.225402         1.693136        -1.207644
 H         2.426821         0.007435        -2.063663
