19
Iteration:  3116charge 0 multiplicity 1
 C        -0.120971         0.355747        -0.046757
 C         1.393339         0.100460         0.021069
 O         1.884824        -1.340543         0.142538
 C         3.094868        -0.434436         0.087181
 C         2.572003         0.574827         1.121877
 C         3.066106         1.958004         1.129673
 O         2.821086         2.611550        -0.105393
 C         2.996344         1.738034        -1.246468
 C         2.440256         0.394113        -1.084712
 H        -0.670935         0.006728         0.812668
 H        -0.277567         1.397672        -0.225694
 H        -0.515348        -0.183633        -0.895255
 H         4.070616        -0.841813         0.075531
 H         2.410386         0.168035         2.108771
 H         2.696333         2.719188         1.802215
 H         4.097793         2.086461         1.386309
 H         2.570380         2.383244        -2.094709
 H         4.049884         1.518209        -1.498894
 H         2.217654        -0.281297        -1.936723
