19
Iteration:   175
 C        -0.103215         0.440219         0.071636
 C         1.452035         0.169932        -0.011903
 O         1.808877        -1.298048        -0.024173
 C         3.089653        -0.470697         0.128668
 C         2.460485         0.475408         1.118370
 C         3.076854         1.934478         1.176117
 O         2.746685         2.505764        -0.087424
 C         3.035666         1.866268        -1.302043
 C         2.617838         0.358631        -1.091972
 H        -0.257491         0.018973         1.064499
 H        -0.196102         1.588602         0.060675
 H        -0.727807        -0.051394        -0.765722
 H         4.041954        -1.039371         0.313040
 H         2.250311         0.072013         2.095660
 H         2.468044         2.422974         1.994548
 H         4.171646         1.910908         1.470991
 H         2.447449         2.366430        -2.129414
 H         4.136586         1.975341        -1.550283
 H         2.468405        -0.329592        -1.933892
