19
Iteration:  1058
 C        -0.042438         0.470670         0.076605
 C         1.430013         0.145298        -0.021168
 O         1.867429        -1.350985         0.064987
 C         3.137897        -0.471276         0.028900
 C         2.445159         0.428844         1.067690
 C         2.852728         1.877658         1.155244
 O         2.849175         2.624694        -0.084717
 C         3.069318         1.816563        -1.247214
 C         2.528853         0.411076        -1.094309
 H        -0.320530         0.167905         1.201030
 H        -0.129898         1.510498        -0.119226
 H        -0.790064        -0.090955        -0.643333
 H         4.196543        -0.770327         0.078190
 H         2.254979         0.023488         2.051535
 H         2.382028         2.416811         2.002862
 H         3.928304         1.838901         1.524588
 H         2.693209         2.251721        -2.171401
 H         4.254329         1.744115        -1.222112
 H         2.253827        -0.067937        -2.073085
