19
Iteration:  4455
 C        -0.090733         0.513298        -0.119896
 C         1.394611         0.126101         0.095407
 O         1.914102        -1.292360         0.220302
 C         3.111359        -0.561080         0.050463
 C         2.568983         0.514363         1.118384
 C         3.105866         1.920153         1.052675
 O         2.655045         2.600975        -0.090551
 C         2.977445         1.722736        -1.247199
 C         2.543871         0.343425        -1.044115
 H        -0.806423         0.228728         0.662108
 H        -0.179397         1.563104        -0.472145
 H        -0.503781         0.145618        -1.094975
 H         4.156983        -1.020286        -0.006595
 H         2.571450         0.224782         2.168439
 H         2.615465         2.465082         1.969542
 H         4.199684         2.135611         1.290506
 H         2.476675         2.237821        -2.147628
 H         4.016800         1.813579        -1.398003
 H         2.253368        -0.134208        -1.999676
