19
Iteration:  2362charge 0 multiplicity 1
 C        -0.061959         0.452562        -0.136686
 C         1.413611         0.111543         0.023924
 O         1.857261        -1.254067         0.168116
 C         3.119139        -0.547985         0.041392
 C         2.636100         0.455970         1.105474
 C         3.057157         1.853350         1.191332
 O         2.655058         2.645949        -0.072396
 C         3.037138         1.829440        -1.252256
 C         2.478395         0.399608        -1.038921
 H        -0.683989        -0.112592         0.615923
 H        -0.209010         1.540849        -0.252852
 H        -0.353221         0.154435        -1.159960
 H         3.972998        -1.161148        -0.010388
 H         2.554991         0.073127         2.130675
 H         2.537343         2.468490         2.027098
 H         4.139191         1.921331         1.247802
 H         2.394815         2.147979        -2.178692
 H         4.079287         1.913057        -1.342109
 H         2.458063        -0.315402        -1.905810
