19
Iteration:  2049charge 0 multiplicity 1
 C        -0.135636         0.431794        -0.141696
 C         1.432279         0.109357         0.036321
 O         1.916879        -1.329645         0.104489
 C         3.153911        -0.515762         0.037631
 C         2.511303         0.486588         1.155144
 C         2.964995         1.968690         1.215456
 O         2.938113         2.631690        -0.100667
 C         2.911810         1.833343        -1.209457
 C         2.458362         0.347415        -1.048750
 H        -0.674997         0.016981         0.702527
 H        -0.477878         1.513547         0.144285
 H        -0.528537         0.097207        -1.129369
 H         4.143401        -1.197267        -0.281590
 H         2.416406         0.017687         2.116925
 H         2.256493         2.424467         1.839886
 H         4.066151         2.062669         1.427742
 H         2.425250         2.358301        -1.980621
 H         4.009008         1.681079        -1.560772
 H         2.374363        -0.192793        -1.964001
