19
Iteration:   440charge 0 multiplicity 1
 C        -0.069768         0.396774        -0.060788
 C         1.440873         0.194074         0.010145
 O         1.794277        -1.257296         0.164632
 C         3.126586        -0.575627         0.022842
 C         2.629079         0.427215         1.070580
 C         3.069623         1.876006         1.135079
 O         2.764428         2.607282        -0.054956
 C         2.989938         1.840001        -1.210991
 C         2.489685         0.432674        -1.056599
 H        -0.596295        -0.197266         0.741656
 H        -0.329890         1.363150        -0.125713
 H        -0.301305        -0.142097        -1.084836
 H         3.809672        -1.400842        -0.115711
 H         2.335018         0.188190         2.048156
 H         2.514665         2.441905         1.895983
 H         4.075063         2.121575         1.363951
 H         2.415425         2.332435        -2.014125
 H         4.120122         1.935769        -1.423399
 H         2.154154         0.215862        -2.049909
