19
Iteration:   885
 C        -0.004038         0.448644         0.028924
 C         1.463472         0.139653         0.070767
 O         1.875244        -1.269083         0.095520
 C         3.087452        -0.491065        -0.055566
 C         2.526806         0.470325         1.044938
 C         2.930752         1.943472         1.134937
 O         2.736662         2.565958        -0.070485
 C         3.132240         1.754977        -1.167518
 C         2.434023         0.405947        -1.078788
 H        -0.548191         0.081158         0.936793
 H        -0.185183         1.424385        -0.105581
 H        -0.411935        -0.188906        -0.815295
 H         3.996837        -0.996837        -0.153652
 H         2.466208         0.016012         2.026072
 H         2.232240         2.408440         1.824251
 H         4.012264         2.047244         1.420674
 H         2.902205         2.353701        -2.168831
 H         4.229610         1.482547        -1.198474
 H         1.912969         0.110745        -1.989835
