19
Iteration:    31
 C        -0.098630         0.372861        -0.023936
 C         1.452749         0.172888         0.015362
 O         1.829431        -1.186949         0.120083
 C         3.097692        -0.507835        -0.056820
 C         2.624773         0.453636         1.153971
 C         2.963570         1.923857         1.218071
 O         2.778407         2.533653        -0.065760
 C         3.112582         1.787561        -1.270792
 C         2.439094         0.425504        -1.106500
 H        -0.385106         0.120223         1.020452
 H        -0.280691         1.469465        -0.336168
 H        -0.539359        -0.275792        -0.673786
 H         3.909250        -1.104744        -0.278035
 H         2.401024        -0.015716         2.038209
 H         2.334804         2.357255         1.982882
 H         3.982338         2.059690         1.601024
 H         2.635043         2.292652        -2.066150
 H         4.192572         1.586873        -1.416307
 H         2.170031        -0.024260        -1.984932
