19
Iteration:  1786
 C        -0.053676         0.405181         0.109840
 C         1.414634         0.132663        -0.044151
 O         1.856075        -1.288799         0.054210
 C         3.105933        -0.556006         0.002463
 C         2.417223         0.518099         1.083333
 C         2.942871         1.922920         1.178780
 O         2.764855         2.640654        -0.090484
 C         3.110795         1.774425        -1.230909
 C         2.594000         0.377851        -1.091451
 H        -0.262846         0.329038         1.130688
 H        -0.330515         1.534540        -0.099616
 H        -0.458550        -0.395161        -0.471404
 H         4.049054        -1.080677         0.122932
 H         2.117278         0.031069         2.026735
 H         2.441015         2.627936         1.906782
 H         4.027146         1.894578         1.426988
 H         2.702304         2.187555        -2.179624
 H         4.161579         1.889646        -1.376301
 H         2.481174         0.000963        -2.097862
