19
Iteration:   435charge 0 multiplicity 1
 C        -0.028740         0.397238        -0.027477
 C         1.464109         0.153193         0.001157
 O         1.784666        -1.276225         0.132524
 C         3.148735        -0.554889         0.051050
 C         2.588799         0.434704         1.085070
 C         3.065969         1.834736         1.145451
 O         2.762128         2.660385        -0.082281
 C         2.981638         1.828545        -1.209282
 C         2.454636         0.421673        -1.082175
 H        -0.539014        -0.085020         0.779987
 H        -0.438774         1.505024        -0.226988
 H        -0.400895        -0.089118        -0.937326
 H         3.968537        -1.324620        -0.023501
 H         2.268514         0.142727         2.141685
 H         2.579662         2.537615         1.885312
 H         4.151853         2.049665         1.500503
 H         2.569852         2.384914        -2.065767
 H         4.053736         1.865113        -1.330540
 H         2.182594         0.234567        -2.181773
