19
Iteration:  3316
 C        -0.117568         0.387414        -0.017926
 C         1.346668         0.148523         0.150957
 O         1.836636        -1.320842         0.222039
 C         3.125737        -0.471772        -0.032312
 C         2.555230         0.503383         1.011593
 C         2.994516         1.896384         1.118649
 O         2.838910         2.673759        -0.101942
 C         3.094687         1.822200        -1.299530
 C         2.546664         0.315649        -1.035805
 H        -0.607598         0.245333         1.037618
 H        -0.277307         1.391243        -0.299101
 H        -0.487381        -0.350540        -0.872588
 H         4.108132        -1.022291         0.081063
 H         2.376871         0.129786         2.055504
 H         2.043303         2.246237         1.624706
 H         3.858489         2.183436         1.453454
 H         2.426448         2.102801        -2.202385
 H         4.136489         1.930018        -1.586673
 H         2.314613        -0.170946        -2.046516
