19
Iteration:  1592
 C        -0.154587         0.474179         0.085931
 C         1.410764         0.088911         0.005552
 O         1.897202        -1.314367         0.051115
 C         3.124188        -0.531890         0.027625
 C         2.564763         0.397100         1.104639
 C         2.857213         1.876480         1.134530
 O         2.825690         2.624867        -0.096448
 C         3.155372         1.887665        -1.298301
 C         2.539115         0.445813        -1.069668
 H        -0.560116         0.336877         1.199367
 H        -0.317804         1.509682        -0.103706
 H        -0.839143        -0.208860        -0.566742
 H         3.908320        -1.227850        -0.026960
 H         2.430455        -0.020476         2.166880
 H         2.111528         2.342537         1.808959
 H         3.774853         2.155499         1.702346
 H         2.602842         2.375086        -2.145943
 H         4.224641         1.874757        -1.357827
 H         2.390080        -0.213518        -1.933571
