19
Iteration:  4795charge 0 multiplicity 1
 C        -0.136887         0.369681        -0.080630
 C         1.386003         0.139635         0.009967
 O         1.854764        -1.310964         0.144762
 C         3.150041        -0.430271         0.135623
 C         2.538482         0.558187         1.149409
 C         3.105762         2.018824         1.148821
 O         2.813481         2.620141        -0.114593
 C         3.012958         1.713053        -1.318856
 C         2.454142         0.293746        -1.060978
 H        -0.638979        -0.141314         0.785397
 H        -0.210773         1.434928         0.231758
 H        -0.442389        -0.067483        -1.102031
 H         4.053593        -1.040453         0.030827
 H         2.211381         0.133881         2.158727
 H         2.612916         2.609221         1.832162
 H         4.110937         2.035171         1.407522
 H         2.395546         2.302627        -2.068819
 H         4.014215         1.745120        -1.693795
 H         2.323694        -0.360082        -1.954588
