19
Iteration:  1151
 C        -0.049493         0.397459        -0.032311
 C         1.424976         0.113253        -0.039645
 O         1.889447        -1.303292        -0.005020
 C         3.079477        -0.507655         0.205358
 C         2.452086         0.488632         1.126786
 C         3.119279         1.826950         1.084453
 O         2.733817         2.674143        -0.045162
 C         2.938741         1.818927        -1.217530
 C         2.545148         0.395967        -1.038866
 H        -0.627189        -0.000465         0.690930
 H         0.063551         1.552719         0.137145
 H        -0.538586         0.353161        -0.946372
 H         4.024012        -1.003919         0.226798
 H         1.983367         0.111998         2.054006
 H         3.083081         2.509455         1.879146
 H         4.187654         1.614232         1.056055
 H         2.373262         2.356265        -1.989920
 H         4.099051         1.768512        -1.443315
 H         2.499383        -0.048290        -2.011742
