19
Iteration:  2295charge 0 multiplicity 1
 C        -0.026357         0.431869         0.093830
 C         1.395558         0.128511        -0.071101
 O         1.903964        -1.315642         0.053597
 C         3.086233        -0.490085         0.071263
 C         2.417382         0.505794         1.099007
 C         2.878652         1.913450         1.178274
 O         2.824937         2.585197        -0.128268
 C         3.102234         1.804575        -1.260768
 C         2.577237         0.410736        -1.039168
 H        -0.201715        -0.029184         1.157119
 H        -0.264341         1.457663        -0.120964
 H        -0.766826        -0.118755        -0.559479
 H         3.997251        -1.131910        -0.045561
 H         2.166403         0.032802         2.075298
 H         2.330092         2.581164         1.946066
 H         3.889749         1.934830         1.529038
 H         2.541628         2.394819        -2.109997
 H         4.133082         1.696553        -1.583450
 H         2.590082        -0.037827        -2.045167
