19
Iteration:  3500
 C        -0.225531         0.419796         0.048654
 C         1.406210         0.204700         0.035616
 O         1.886065        -1.288781         0.150427
 C         3.150666        -0.491874         0.061642
 C         2.602098         0.506561         1.109761
 C         2.939042         1.942424         1.037832
 O         2.769674         2.617511        -0.163939
 C         3.098816         1.731433        -1.244038
 C         2.548382         0.342894        -1.024119
 H        -0.591454         0.189964         1.092380
 H        -0.447023         1.457753        -0.112723
 H        -0.699000        -0.292553        -0.733848
 H         4.013437        -1.112826        -0.170357
 H         2.404510         0.022027         2.058614
 H         2.324173         2.353594         1.934855
 H         4.106070         2.093107         1.386111
 H         2.675141         2.150573        -2.232212
 H         4.207225         1.749036        -1.336117
 H         2.526166        -0.186962        -2.066571
