19
Iteration:  1052
 C         0.024723         0.451104         0.113666
 C         1.432528         0.113136        -0.053888
 O         1.866275        -1.303891         0.052527
 C         3.058626        -0.460378         0.050719
 C         2.413992         0.461011         1.050385
 C         2.891615         1.863147         1.155882
 O         2.819791         2.604208        -0.075187
 C         3.108989         1.796686        -1.225344
 C         2.532505         0.412016        -1.082618
 H        -0.326150         0.143714         1.013263
 H        -0.258046         1.554592        -0.058140
 H        -0.444821        -0.177450        -0.572985
 H         4.096375        -0.821176         0.187347
 H         2.142480        -0.053713         2.024472
 H         2.367594         2.496320         1.888010
 H         3.965969         1.843110         1.363635
 H         2.597384         2.521993        -1.952451
 H         4.095306         1.786366        -1.708788
 H         2.477490        -0.190103        -2.021842
