19
Iteration:   473
 C        -0.040469         0.444332        -0.082417
 C         1.404694         0.103765         0.010457
 O         1.828214        -1.291752         0.106939
 C         3.174794        -0.416463         0.059986
 C         2.536458         0.475694         1.139364
 C         3.142312         1.914423         1.163874
 O         2.753903         2.591203        -0.044433
 C         2.941875         1.781423        -1.238640
 C         2.431948         0.400780        -1.077339
 H        -0.685188        -0.246074         0.523840
 H        -0.181879         1.430391         0.136423
 H        -0.221988         0.252216        -1.198480
 H         4.022415        -1.082493         0.020076
 H         2.245098        -0.005923         2.032136
 H         2.779434         2.381055         2.051869
 H         4.212576         1.852925         1.143519
 H         2.496507         2.302454        -2.086757
 H         4.022851         1.621503        -1.508506
 H         2.140939        -0.189782        -1.904111
