19
Iteration:  2242
 C        -0.099585         0.306051        -0.081044
 C         1.373212         0.161580         0.059685
 O         1.875206        -1.261233         0.143754
 C         3.108346        -0.474288         0.033195
 C         2.529924         0.464406         1.155304
 C         3.082820         1.889272         1.164520
 O         2.753481         2.613237        -0.092765
 C         3.151314         1.838082        -1.248348
 C         2.423577         0.381400        -1.116240
 H        -0.671480        -0.095276         0.783412
 H        -0.173207         1.412914        -0.183632
 H        -0.464132         0.009141        -1.068523
 H         4.004687        -0.961295         0.124556
 H         2.207700        -0.025169         2.085584
 H         2.382338         2.515940         1.926687
 H         4.168435         2.028004         1.328069
 H         2.646663         2.546720        -2.047068
 H         4.259494         1.687380        -1.333317
 H         1.993252         0.001567        -2.125046
