19
Iteration:  3230charge 0 multiplicity 1
 C         0.023409         0.472900         0.002452
 C         1.479874         0.171927         0.025714
 O         1.817034        -1.329989         0.132790
 C         3.060224        -0.518645         0.066286
 C         2.526111         0.520780         1.103457
 C         3.026930         2.041579         1.053519
 O         2.687269         2.618059        -0.126903
 C         3.008580         1.747377        -1.196239
 C         2.536628         0.288896        -1.085131
 H        -0.417310        -0.300259         0.689076
 H        -0.356145         1.415356         0.149780
 H        -0.443631         0.122976        -0.928901
 H         4.093723        -1.093056         0.296501
 H         2.367163        -0.096875         2.022357
 H         2.715535         2.548091         1.999834
 H         4.221521         2.066449         1.313747
 H         2.513857         2.158144        -2.085982
 H         4.129715         1.744904        -1.295889
 H         2.405674        -0.317383        -1.989472
