19
Iteration:  4632charge 0 multiplicity 1
 C        -0.018442         0.476381        -0.048531
 C         1.421838         0.133314        -0.025473
 O         1.826998        -1.319494         0.143103
 C         3.145654        -0.521557         0.178655
 C         2.527666         0.505870         1.141610
 C         3.085431         1.939581         1.047309
 O         2.717077         2.644442        -0.106586
 C         2.922967         1.771746        -1.287513
 C         2.578731         0.306537        -1.013739
 H        -0.635944         0.135158         0.784726
 H        -0.208957         1.473020        -0.016745
 H        -0.480105        -0.106349        -0.855104
 H         4.149509        -0.927036         0.172204
 H         2.137058         0.137385         2.117158
 H         2.713526         2.554053         1.898759
 H         4.102914         1.862622         1.156027
 H         2.413413         2.190721        -2.192902
 H         4.010959         1.894478        -1.689436
 H         2.371517        -0.205254        -1.955109
