19
Iteration:   531
 C         0.072945         0.434565         0.092584
 C         1.484570         0.141703        -0.024785
 O         1.822839        -1.284382         0.029796
 C         3.043988        -0.462530         0.020851
 C         2.525004         0.516591         1.090967
 C         2.922934         1.886470         1.162857
 O         2.775414         2.575990        -0.095073
 C         3.027749         1.742676        -1.202612
 C         2.572585         0.386741        -1.098009
 H        -0.419834         0.163754         1.014649
 H        -0.319434         1.592952        -0.073232
 H        -0.541927        -0.011244        -0.601428
 H         3.823760        -1.220853         0.228838
 H         2.366196         0.003278         2.109726
 H         2.189898         2.413731         1.821748
 H         3.934407         2.142862         1.420363
 H         2.413392         2.389634        -2.003870
 H         4.147519         1.720458        -1.418673
 H         2.287572        -0.065796        -2.052979
