19
Iteration:  1612charge 0 multiplicity 1
 C         0.016624         0.405229         0.051041
 C         1.479360         0.147185         0.069275
 O         1.818218        -1.274576         0.036027
 C         3.107471        -0.457717        -0.047632
 C         2.493745         0.477975         1.032342
 C         2.901694         1.949688         1.224550
 O         2.838539         2.589495        -0.079656
 C         3.065981         1.722231        -1.184250
 C         2.461984         0.389361        -1.105566
 H        -0.458083         0.088723         1.039229
 H        -0.189817         1.516275        -0.239725
 H        -0.373838        -0.314926        -0.720100
 H         4.091509        -0.878555        -0.102487
 H         2.512637        -0.086498         1.993212
 H         2.069525         2.598796         1.733001
 H         3.798178         2.127414         1.765551
 H         2.596035         2.378632        -1.983382
 H         4.126707         1.573762        -1.284112
 H         2.244721        -0.098749        -2.074735
