19
Iteration:   278
 C        -0.083639         0.404891         0.000097
 C         1.442101         0.108933         0.015508
 O         1.772084        -1.260511         0.075394
 C         3.114458        -0.595179         0.062346
 C         2.484204         0.460079         1.167012
 C         3.037159         1.874192         1.107605
 O         2.803590         2.687785        -0.084899
 C         3.015447         1.920871        -1.265947
 C         2.644011         0.350924        -1.059966
 H        -0.506705        -0.195628         0.862301
 H        -0.247061         1.444511         0.208085
 H        -0.496446         0.019176        -0.893434
 H         3.943178        -1.369254         0.078907
 H         2.090808         0.159076         2.151833
 H         2.689130         2.404419         1.975533
 H         4.109289         1.662996         1.245807
 H         2.144555         2.172444        -1.981339
 H         3.949903         2.122754        -1.824865
 H         2.516045         0.002666        -2.081892
