19
Iteration:   319charge 0 multiplicity 1
 C        -0.126964         0.473046        -0.012593
 C         1.447992         0.076504        -0.002224
 O         1.897162        -1.279946         0.104114
 C         3.128766        -0.443840         0.063931
 C         2.441355         0.441870         1.149410
 C         3.089247         1.891241         1.127388
 O         2.750575         2.534134        -0.051143
 C         3.031230         1.820067        -1.231449
 C         2.446935         0.427588        -1.097970
 H        -0.623275        -0.069012         0.802499
 H        -0.111823         1.523053         0.109318
 H        -0.451323         0.263627        -1.194121
 H         4.144521        -0.975107        -0.115618
 H         2.386072         0.036346         2.179962
 H         2.882200         2.694857         1.921023
 H         4.188789         1.653158         1.077649
 H         2.641453         2.403430        -2.111921
 H         4.100054         1.828180        -1.493868
 H         2.217935        -0.115507        -2.066255
