19
Iteration:  3443charge 0 multiplicity 1
 C        -0.172441         0.554885        -0.013711
 C         1.415643         0.095983         0.056288
 O         1.950253        -1.380609         0.185866
 C         3.133009        -0.508672         0.142269
 C         2.516165         0.557782         1.073038
 C         3.025509         1.931743         1.113326
 O         2.709405         2.576064        -0.118300
 C         2.995517         1.787267        -1.312112
 C         2.599559         0.339543        -1.116130
 H        -0.856011         0.022185         0.695961
 H        -0.147898         1.610543         0.222612
 H        -0.613069         0.490935        -1.065150
 H         4.053589        -1.218414         0.411968
 H         2.422820         0.032713         1.993743
 H         2.584617         2.612225         1.893408
 H         4.205390         1.992912         1.252818
 H         2.383532         2.141163        -2.173907
 H         4.067434         1.801303        -1.589412
 H         2.436718        -0.168881        -2.127231
