19
Iteration:  2266
 C        -0.116997         0.371269         0.009263
 C         1.389013         0.119689         0.064717
 O         1.829295        -1.334674         0.076463
 C         3.119176        -0.475102         0.019717
 C         2.556070         0.519215         1.053298
 C         2.926884         1.947921         1.151924
 O         2.834004         2.670364        -0.103959
 C         3.126236         1.798331        -1.164621
 C         2.483568         0.370776        -1.077277
 H        -0.479279        -0.097139         0.847975
 H        -0.547429         1.386564        -0.299382
 H        -0.360212        -0.254517        -0.817700
 H         3.973885        -1.070262         0.044208
 H         2.570368         0.032784         2.016409
 H         2.296570         2.552808         1.888864
 H         4.054133         1.947594         1.336143
 H         2.730110         2.405184        -2.007073
 H         4.244301         1.547014        -1.216596
 H         2.342588        -0.091093        -2.128154
