19
Iteration:  3201
 C        -0.060953         0.471191        -0.014988
 C         1.460865         0.107151         0.071422
 O         1.916251        -1.295785         0.181169
 C         3.063210        -0.467882         0.080349
 C         2.586869         0.457943         1.115084
 C         2.995931         1.934154         1.071109
 O         2.702563         2.545272        -0.152273
 C         3.091318         1.799233        -1.319278
 C         2.435896         0.409890        -1.025610
 H        -0.686757         0.265229         0.852441
 H        -0.217886         1.660755        -0.242566
 H        -0.466404         0.012519        -0.909663
 H         3.974970        -0.941889         0.251042
 H         2.424659        -0.106563         2.040216
 H         2.277751         2.297672         1.820921
 H         4.024797         1.951104         1.259483
 H         2.693066         2.385075        -2.138131
 H         4.188739         1.745890        -1.369539
 H         2.255517        -0.252479        -1.854058
