19
Iteration:  3756
 C         0.009472         0.363226        -0.058953
 C         1.396689         0.169079         0.050339
 O         1.847221        -1.388542         0.175520
 C         3.056927        -0.452889         0.137235
 C         2.464007         0.512465         1.134041
 C         3.064405         1.970405         1.110208
 O         2.838722         2.624681        -0.160709
 C         2.979104         1.800546        -1.277485
 C         2.482624         0.362465        -1.108888
 H        -0.494818         0.143319         0.844815
 H        -0.297775         1.422372        -0.283942
 H        -0.317768        -0.222605        -0.830419
 H         4.091745        -0.690518         0.249432
 H         2.264446         0.055313         2.176825
 H         2.754645         2.658837         2.025833
 H         4.180991         1.810822         1.260673
 H         2.279750         2.246587        -1.976868
 H         4.115743         1.908927        -1.681731
 H         2.254756        -0.266141        -1.951108
