19
Iteration:  3742charge 0 multiplicity 1
 C        -0.103185         0.361898        -0.082029
 C         1.416501         0.112688         0.012801
 O         1.866386        -1.290597         0.211601
 C         3.126786        -0.510010         0.084566
 C         2.516379         0.531976         1.094351
 C         3.089888         1.959253         1.123020
 O         2.851009         2.669983        -0.107864
 C         2.939041         1.772461        -1.292345
 C         2.483870         0.347802        -1.015463
 H        -0.582128         0.236718         0.901282
 H        -0.293574         1.465811        -0.381349
 H        -0.554839        -0.248581        -0.882674
 H         4.028255        -1.263417         0.063988
 H         2.349762         0.097578         2.057714
 H         2.346535         2.483333         1.754256
 H         4.095100         1.994520         1.376399
 H         2.328844         2.269942        -2.094076
 H         4.006863         1.701672        -1.651129
 H         2.416369        -0.166244        -1.988467
