19
Iteration:   521charge 0 multiplicity 1
 C        -0.023216         0.450904         0.083935
 C         1.407557         0.124310        -0.062726
 O         1.830497        -1.262790         0.005580
 C         3.140400        -0.548660         0.109568
 C         2.462223         0.476789         1.095595
 C         2.981234         1.916027         1.141408
 O         2.779872         2.589875        -0.099939
 C         2.996560         1.816961        -1.226541
 C         2.590837         0.370334        -1.072138
 H        -0.163859         0.084486         1.085884
 H         0.036649         1.662741         0.117860
 H        -0.692077         0.041511        -0.622622
 H         4.094092        -1.132405         0.119759
 H         2.288643         0.104925         2.171875
 H         2.358781         2.451914         1.904999
 H         3.957821         1.917916         1.599911
 H         2.383983         2.143777        -2.148900
 H         4.066487         1.924818        -1.594391
 H         2.480974        -0.162758        -2.052266
