19
Iteration:  1946
 C         0.046163         0.402566         0.001951
 C         1.469814         0.182766         0.068159
 O         1.804082        -1.270720         0.126889
 C         3.079645        -0.486320        -0.033225
 C         2.514891         0.487441         1.085022
 C         2.936578         1.916148         1.095596
 O         2.683016         2.586417        -0.086636
 C         3.150767         1.800882        -1.159532
 C         2.483205         0.381546        -1.126347
 H        -0.569097         0.160482         0.928963
 H        -0.306076         1.436605        -0.224455
 H        -0.362866        -0.385646        -0.683829
 H         4.063265        -1.142679         0.006569
 H         2.497216        -0.060787         2.049539
 H         2.447082         2.418824         1.933259
 H         4.022441         1.989391         1.417719
 H         3.007369         2.327382        -2.142567
 H         4.258185         1.645237        -1.061474
 H         2.215623        -0.104907        -2.140173
