19
Iteration:  3797
 C        -0.127597         0.410742        -0.002325
 C         1.418122         0.147106         0.003087
 O         1.817848        -1.346586         0.150244
 C         3.125562        -0.469320         0.094680
 C         2.513833         0.574490         1.118963
 C         3.062498         1.957812         1.103357
 O         2.716715         2.614498        -0.145992
 C         3.073964         1.801836        -1.270838
 C         2.557340         0.278778        -1.034461
 H        -0.515401        -0.212104         0.777462
 H        -0.231863         1.588283         0.043156
 H        -0.564615         0.004047        -0.892095
 H         4.022093        -1.161327         0.231698
 H         2.453626         0.151138         2.094389
 H         2.700389         2.656402         1.868806
 H         4.202264         2.001954         1.289360
 H         2.575099         2.230461        -2.171608
 H         4.075572         1.783813        -1.559493
 H         2.485843        -0.195846        -1.989962
