19
Iteration:  1670
 C        -0.022852         0.327354        -0.056032
 C         1.469686         0.173340        -0.039285
 O         1.829968        -1.262821         0.014942
 C         3.090824        -0.552860         0.186782
 C         2.417882         0.467570         1.181165
 C         3.145392         1.891582         1.102985
 O         2.751349         2.648367        -0.068146
 C         2.979139         1.845364        -1.245837
 C         2.525989         0.432580        -1.056278
 H        -0.613720        -0.196606         0.834787
 H        -0.255468         1.309801         0.220433
 H        -0.593714         0.138678        -1.070058
 H         4.067740        -1.000737         0.266250
 H         2.136273         0.032880         2.187099
 H         3.012895         2.504805         1.996497
 H         4.159491         1.603395         1.064796
 H         2.417628         2.244927        -2.104601
 H         3.982891         1.923696        -1.586081
 H         2.357274        -0.192909        -1.932722
