19
Iteration:  3411charge 0 multiplicity 1
 C         0.065983         0.413415        -0.083050
 C         1.481318         0.144068         0.118503
 O         1.848285        -1.232368         0.162654
 C         3.116019        -0.478606         0.076009
 C         2.555897         0.513684         1.070158
 C         3.041079         1.909615         1.113483
 O         2.685106         2.631848        -0.139620
 C         2.958885         1.670391        -1.240093
 C         2.458286         0.392775        -1.032926
 H        -0.630555        -0.039120         0.665934
 H        -0.084054         1.462166        -0.005607
 H        -0.304046         0.235146        -1.155784
 H         3.979673        -1.193546         0.238274
 H         2.415039         0.040857         2.029094
 H         2.497766         2.533921         1.861825
 H         4.041887         1.872844         1.225953
 H         2.492067         2.128433        -2.171257
 H         4.074031         1.540643        -1.468493
 H         2.099341        -0.201157        -1.941034
