19
Iteration:  4386
 C        -0.111140         0.388365         0.102153
 C         1.364969         0.064839         0.083216
 O         1.845597        -1.298583         0.115639
 C         3.090034        -0.458636         0.055545
 C         2.500364         0.525478         1.138958
 C         2.948523         1.936872         1.082417
 O         2.840330         2.639206        -0.190326
 C         3.095552         1.781160        -1.285168
 C         2.607230         0.371475        -1.104447
 H        -0.438969        -0.022838         1.031487
 H        -0.224053         1.509684         0.048831
 H        -0.711765         0.099399        -0.705654
 H         3.986251        -1.164319         0.070293
 H         2.199637         0.034359         2.045892
 H         2.290208         2.426399         1.751489
 H         3.930205         2.169615         1.586518
 H         2.623649         2.201827        -2.163162
 H         4.154750         1.762263        -1.430022
 H         2.517917        -0.228772        -2.008422
