19
Iteration:   234charge 0 multiplicity 1
 C        -0.116272         0.487109        -0.022053
 C         1.347338         0.115633         0.073949
 O         1.985108        -1.268095         0.097210
 C         3.103445        -0.447100        -0.110468
 C         2.478837         0.459000         1.106256
 C         2.989930         1.947393         1.248745
 O         2.822145         2.581732        -0.072140
 C         3.070918         1.713362        -1.230169
 C         2.415066         0.370691        -1.080953
 H        -0.740928         0.488823         0.885022
 H        -0.024114         1.507650        -0.225322
 H        -0.681419        -0.082185        -0.819952
 H         4.158309        -0.906793        -0.335505
 H         2.566191        -0.209327         2.015655
 H         2.381736         2.514569         2.023137
 H         4.062944         1.915591         1.568494
 H         2.764658         2.331338        -2.174637
 H         4.196261         1.543336        -1.299147
 H         2.176302        -0.322376        -1.952908
