19
Iteration:  3352
 C         0.006282         0.372259         0.067770
 C         1.430793         0.123030         0.024325
 O         1.871682        -1.328694         0.062785
 C         3.077875        -0.372077         0.089902
 C         2.366004         0.518826         1.120434
 C         3.048776         1.974627         1.128722
 O         2.796639         2.580844        -0.148820
 C         3.055560         1.745378        -1.295775
 C         2.501901         0.360930        -1.073213
 H        -0.290677         0.427462         1.108960
 H        -0.171766         1.420610        -0.434898
 H        -0.545057        -0.414456        -0.371956
 H         4.132993        -0.986621         0.122660
 H         2.081504         0.118012         2.128675
 H         2.556708         2.573652         1.863630
 H         3.941171         1.927048         1.477452
 H         2.628249         2.341267        -2.072808
 H         4.171650         1.717176        -1.445787
 H         2.201932        -0.283690        -1.843309
