19
Iteration:   211
 C         0.007662         0.454085         0.047135
 C         1.411110         0.130161         0.032131
 O         1.811822        -1.352582         0.089853
 C         3.102980        -0.519816         0.030719
 C         2.529290         0.464269         1.026035
 C         2.937958         1.879242         1.087036
 O         2.825945         2.617862        -0.088183
 C         3.076697         1.837660        -1.176000
 C         2.497743         0.455099        -1.094725
 H        -0.405555         0.361904         1.037604
 H        -0.244477         1.426605        -0.149288
 H        -0.693710        -0.310897        -0.531793
 H         4.128832        -1.174297         0.119077
 H         2.250830         0.123718         2.090997
 H         2.217710         2.393573         1.866728
 H         3.984344         1.995011         1.484809
 H         2.601580         2.427005        -2.126175
 H         4.210885         1.843945        -1.316979
 H         2.232688        -0.189101        -2.025740
