19
Iteration:  2420
 C        -0.078764         0.398897        -0.021469
 C         1.411445         0.077403        -0.004882
 O         1.817304        -1.381482         0.075413
 C         3.145841        -0.499806         0.120081
 C         2.452575         0.471728         1.100309
 C         3.037993         1.875866         1.086607
 O         2.799204         2.634534        -0.083901
 C         3.020344         1.929032        -1.267403
 C         2.582833         0.435911        -1.015035
 H        -0.517199         0.197973         0.938321
 H        -0.299426         1.506238        -0.047182
 H        -0.599817        -0.229345        -0.755316
 H         4.115065        -0.961704         0.187447
 H         2.252978         0.177936         2.135843
 H         2.490229         2.518557         1.923517
 H         4.056418         1.801699         1.426790
 H         2.467416         2.381043        -2.192314
 H         4.008362         2.012206        -1.594937
 H         2.541359        -0.173999        -1.958377
