19
Iteration:  3534charge 0 multiplicity 1
 C        -0.004873         0.324141         0.030121
 C         1.411937         0.119043         0.072450
 O         1.882854        -1.307756         0.173038
 C         3.066576        -0.494966         0.015204
 C         2.469615         0.575628         1.147466
 C         2.974571         1.972045         1.112358
 O         2.814823         2.658148        -0.119061
 C         3.067665         1.716332        -1.294978
 C         2.467441         0.366786        -1.103499
 H        -0.492016         0.522332         0.990073
 H        -0.068552         1.291840        -0.546387
 H        -0.652493        -0.275148        -0.686271
 H         3.868502        -1.110132        -0.279453
 H         2.244965         0.331376         2.224231
 H         2.388973         2.599834         1.950062
 H         4.156905         1.741329         1.280595
 H         2.713558         2.376268        -2.155465
 H         4.163018         1.671374        -1.338477
 H         2.326092        -0.152539        -2.139204
