19
Iteration:  1301charge 0 multiplicity 1
 C        -0.096268         0.454586        -0.091731
 C         1.355957         0.090578         0.085171
 O         1.852969        -1.363947         0.113016
 C         3.074265        -0.484201        -0.027697
 C         2.622830         0.463427         1.139546
 C         3.018033         1.926322         1.154112
 O         2.768852         2.668324        -0.082760
 C         3.070359         1.796792        -1.177442
 C         2.503309         0.404614        -1.056351
 H        -0.700175        -0.060660         0.656992
 H        -0.213901         1.474492        -0.002297
 H        -0.427396         0.243966        -1.120010
 H         3.971967        -1.150436        -0.083446
 H         2.535446        -0.102307         2.080923
 H         2.363307         2.422128         1.971215
 H         4.073555         2.064333         1.267635
 H         2.682450         2.259575        -2.107280
 H         4.150808         1.854893        -1.523205
 H         2.278359        -0.150228        -2.018254
