19
Iteration:  2022
 C         0.023105         0.413926        -0.154396
 C         1.447864         0.102595         0.076247
 O         1.843304        -1.351428         0.128209
 C         3.103905        -0.462539         0.095019
 C         2.525891         0.512000         1.094796
 C         2.962140         1.901431         1.192208
 O         2.920593         2.593606        -0.081471
 C         2.886906         1.857616        -1.258383
 C         2.469950         0.395652        -1.069759
 H        -0.721077         0.035146         0.612269
 H        -0.158823         1.476511         0.082006
 H        -0.312406         0.056063        -1.145594
 H         4.034766        -0.939025         0.180039
 H         2.521649         0.011433         2.099503
 H         2.294288         2.357125         2.001054
 H         3.987531         1.942857         1.515916
 H         2.229220         2.388544        -2.036417
 H         3.858230         1.878210        -1.792151
 H         2.259721        -0.180784        -2.061622
