19
Iteration:  3854charge 0 multiplicity 1
 C        -0.108675         0.518208         0.096423
 C         1.391827         0.122768         0.046412
 O         1.937935        -1.285563         0.106634
 C         3.130246        -0.498084         0.052592
 C         2.513209         0.495737         1.137482
 C         2.904197         1.975229         1.131605
 O         2.711338         2.551760        -0.196936
 C         3.124999         1.745507        -1.248001
 C         2.582007         0.276723        -1.111724
 H        -0.744659         0.408121         0.961361
 H         0.056611         1.653513         0.026055
 H        -0.520939         0.256631        -0.840108
 H         4.002109        -1.104348         0.186488
 H         2.299901         0.012651         2.141227
 H         2.226476         2.690512         1.774511
 H         4.057992         2.076789         1.421160
 H         2.549484         2.185856        -2.050175
 H         4.105508         1.696255        -1.478891
 H         2.373403        -0.223165        -2.049194
