19
Iteration:  2157
 C        -0.105792         0.540799        -0.096890
 C         1.433431         0.133315         0.047659
 O         1.893297        -1.316131         0.090331
 C         3.177067        -0.502813         0.028020
 C         2.543060         0.523472         1.087363
 C         2.994889         1.967168         1.220949
 O         2.723341         2.587210        -0.007977
 C         2.942140         1.721058        -1.243718
 C         2.536997         0.289434        -1.124748
 H        -0.696411         0.217504         0.722516
 H        -0.014050         1.737030        -0.225823
 H        -0.591929         0.107460        -0.988824
 H         4.170965        -1.078409         0.051381
 H         2.557659        -0.039314         2.008329
 H         2.563398         2.457510         2.049109
 H         4.045789         2.105615         1.545097
 H         2.546478         2.306462        -2.002903
 H         4.023292         1.675967        -1.515452
 H         2.509601        -0.347595        -2.073425
