19
Iteration:  3150charge 0 multiplicity 1
 C        -0.094278         0.399679         0.063803
 C         1.462521         0.140338        -0.073553
 O         1.820098        -1.379749         0.108348
 C         3.128462        -0.452399         0.152640
 C         2.520229         0.530808         1.171904
 C         3.000089         1.929053         1.114168
 O         2.843822         2.617972        -0.154152
 C         2.959950         1.811524        -1.305433
 C         2.561175         0.372184        -1.064197
 H        -0.510948         0.364055         1.071623
 H        -0.344261         1.351394        -0.311709
 H        -0.600844        -0.287732        -0.633398
 H         4.080067        -0.974387         0.221613
 H         2.385290         0.152915         2.178539
 H         2.308402         2.422824         1.843285
 H         4.050000         1.927569         1.423579
 H         2.340380         2.280959        -2.162269
 H         4.013796         1.879988        -1.638801
 H         2.447497        -0.153947        -2.064711
