19
Iteration:  4375charge 0 multiplicity 1
 C        -0.078776         0.364692         0.099992
 C         1.391142         0.137744         0.055858
 O         1.891387        -1.277913         0.126716
 C         3.100518        -0.493431         0.030898
 C         2.431777         0.502480         1.051810
 C         2.915974         1.998706         1.144002
 O         2.839270         2.582792        -0.159219
 C         3.183573         1.763646        -1.286690
 C         2.460510         0.349834        -1.072935
 H        -0.623328         0.070763         0.974223
 H        -0.140928         1.503414         0.153954
 H        -0.547783        -0.104900        -0.723223
 H         4.141815        -0.929932         0.208963
 H         2.499588         0.177580         2.087998
 H         2.304064         2.649697         1.703354
 H         4.008901         1.902316         1.430085
 H         2.648169         2.250322        -2.105543
 H         4.201011         1.813322        -1.565565
 H         2.208465        -0.145811        -2.013886
