19
Iteration:  3930charge 0 multiplicity 1
 C        -0.017727         0.346055        -0.119040
 C         1.382418         0.101129         0.164517
 O         1.857530        -1.220348         0.186310
 C         3.097347        -0.442690         0.113607
 C         2.511122         0.564843         1.101306
 C         3.113335         1.930460         1.117874
 O         2.792944         2.582938        -0.110757
 C         2.958215         1.750373        -1.305844
 C         2.430326         0.379362        -1.106115
 H        -0.717556         0.046410         0.656301
 H        -0.258551         1.414110        -0.288284
 H        -0.311251        -0.285182        -0.952163
 H         4.038624        -0.942546         0.273075
 H         2.471180        -0.008645         2.010352
 H         2.655095         2.583856         1.799914
 H         4.155799         1.719558         1.252401
 H         2.683192         2.333809        -2.192820
 H         4.150436         1.515579        -1.439338
 H         2.267870        -0.176104        -2.009493
