19
Iteration:    18charge 0 multiplicity 1
 C        -0.083067         0.414182         0.010803
 C         1.399378         0.295228         0.097047
 O         1.775508        -1.222180         0.078731
 C         3.170116        -0.403382        -0.048687
 C         2.632071         0.477942         1.041533
 C         3.003544         1.887910         1.245786
 O         2.764060         2.499110        -0.042867
 C         3.055455         1.703819        -1.227147
 C         2.500136         0.339341        -1.153504
 H        -0.718326         0.076056         0.865607
 H        -0.639865         1.384674        -0.250474
 H        -0.237525        -0.333550        -0.848824
 H         4.134163        -0.890819         0.062531
 H         2.619382        -0.125912         2.005797
 H         2.198760         2.384776         1.809760
 H         4.022807         2.143327         1.623747
 H         2.658293         2.346065        -2.020308
 H         4.164493         1.816048        -1.454021
 H         2.278962        -0.259004        -2.048225
