19
Iteration:  3900charge 0 multiplicity 1
 C        -0.098196         0.434987        -0.051477
 C         1.402700         0.118354         0.048745
 O         1.856796        -1.307579         0.161957
 C         3.055315        -0.552258         0.098203
 C         2.505703         0.545175         1.103420
 C         3.043190         1.980460         1.103348
 O         2.761229         2.629523        -0.143468
 C         3.010382         1.764436        -1.296671
 C         2.617749         0.368226        -1.036246
 H        -0.357274         0.247898         1.034549
 H        -0.314815         1.441430        -0.117811
 H        -0.651620        -0.275917        -0.742174
 H         3.970039        -1.113743         0.091034
 H         2.446997        -0.081876         2.139715
 H         2.487225         2.698760         1.959392
 H         4.221826         1.865099         1.332329
 H         2.454023         2.085936        -2.162744
 H         4.002353         1.795125        -1.506338
 H         2.654685        -0.172337        -2.048182
