19
Iteration:  1212
 C        -0.011301         0.432275        -0.047527
 C         1.458553         0.181970        -0.000389
 O         1.816179        -1.362828         0.117968
 C         3.108939        -0.490873        -0.007466
 C         2.579973         0.465275         1.079290
 C         2.988109         1.931719         1.208146
 O         2.790078         2.606043        -0.044058
 C         3.022530         1.816025        -1.191210
 C         2.442373         0.407149        -1.107531
 H        -0.629666         0.228771         0.903692
 H        -0.120669         1.474335        -0.241898
 H        -0.393487        -0.196054        -0.928162
 H         4.094920        -1.037349        -0.116126
 H         2.255051         0.011781         2.038513
 H         2.287519         2.389896         2.011347
 H         4.042187         1.995817         1.524652
 H         2.574351         2.356788        -2.062111
 H         4.163546         1.690014        -1.533681
 H         2.202866        -0.176790        -2.067082
