19
Iteration:  3988
 C         0.009627         0.447404         0.063139
 C         1.433863         0.107599         0.015654
 O         1.808085        -1.286583         0.117209
 C         3.138017        -0.452097         0.140255
 C         2.398225         0.468403         1.105685
 C         3.006643         1.990484         1.096665
 O         2.791590         2.555683        -0.181461
 C         2.985338         1.743729        -1.338433
 C         2.615463         0.354291        -1.005843
 H        -0.325289        -0.039420         1.021652
 H        -0.237582         1.401358        -0.016708
 H        -0.584509         0.004385        -0.800650
 H         4.089600        -0.920394         0.074530
 H         2.173931        -0.042150         2.175359
 H         2.623901         2.847179         1.805964
 H         3.927157         2.023972         1.590044
 H         2.384659         2.307956        -2.063849
 H         4.159496         1.760380        -1.723042
 H         2.393560        -0.019248        -2.054680
