19
Iteration:  4673charge 0 multiplicity 1
 C        -0.053814         0.521695        -0.134683
 C         1.441845         0.242972         0.027950
 O         1.939157        -1.340460         0.210471
 C         3.128145        -0.526899         0.089704
 C         2.573952         0.442684         1.141341
 C         3.069560         1.919764         1.100000
 O         2.669794         2.639906        -0.129802
 C         2.969460         1.729731        -1.211739
 C         2.448435         0.296871        -1.069465
 H        -0.566348         0.481986         0.852918
 H        -0.322411         1.696584        -0.483748
 H        -0.407931        -0.131939        -0.939772
 H         4.107565        -1.106208         0.083603
 H         2.410420        -0.043876         2.115120
 H         2.473964         2.360954         1.801965
 H         4.256948         2.296364         1.243857
 H         2.454807         2.230817        -2.066926
 H         4.002090         1.794027        -1.403939
 H         2.162888        -0.343206        -1.897931
