19
Iteration:  4151
 C        -0.029064         0.351419        -0.085420
 C         1.416957         0.164805         0.082369
 O         1.840399        -1.247949         0.221772
 C         3.128769        -0.467296         0.044011
 C         2.515788         0.546780         1.136865
 C         3.010006         1.956424         1.092002
 O         2.858982         2.560462        -0.106253
 C         2.980798         1.804301        -1.298723
 C         2.460859         0.346799        -1.080914
 H        -0.434933        -0.160152         0.908856
 H        -0.345267         1.389343        -0.273856
 H        -0.525321        -0.184514        -1.040970
 H         3.975957        -1.100293         0.021838
 H         2.323546        -0.023502         2.124885
 H         2.592726         2.652991         1.803568
 H         3.969683         1.879524         1.551734
 H         2.527894         2.392983        -2.107399
 H         4.070444         1.549533        -1.660255
 H         2.095633        -0.278397        -1.945868
