19
Iteration:  1903charge 0 multiplicity 1
 C         0.027554         0.482924         0.008298
 C         1.431275         0.080640         0.031875
 O         1.860048        -1.335621         0.072407
 C         3.137494        -0.460367         0.080585
 C         2.452082         0.452139         1.089930
 C         2.951037         1.903596         1.118353
 O         2.763119         2.611105        -0.087851
 C         3.008255         1.811830        -1.236035
 C         2.510906         0.375545        -1.074971
 H        -0.619511         0.186941         0.847772
 H         0.034983         1.563620         0.124125
 H        -0.312751         0.015285        -0.900265
 H         4.219348        -0.967815         0.110519
 H         2.162077         0.192757         2.101019
 H         2.498032         2.538988         1.837537
 H         4.073042         1.850728         1.467385
 H         2.552182         2.368953        -2.054428
 H         4.065696         1.823309        -1.540442
 H         2.376039        -0.189131        -2.055292
