19
Iteration:   593
 C        -0.062577         0.415999         0.006699
 C         1.475329         0.125615        -0.015698
 O         1.849153        -1.285332         0.049326
 C         3.098214        -0.504601         0.034478
 C         2.462407         0.528465         1.145406
 C         3.051452         1.894714         1.142597
 O         2.726800         2.619892        -0.073895
 C         3.048042         1.820389        -1.238247
 C         2.521565         0.382515        -1.064767
 H        -0.248955         0.124243         1.058857
 H        -0.161217         1.386159        -0.147351
 H        -0.551297        -0.263427        -0.742725
 H         4.006823        -1.093949         0.106044
 H         2.078417         0.081601         2.025689
 H         2.670627         2.473174         1.957444
 H         4.126872         1.783533         1.379075
 H         2.657874         2.259438        -2.103676
 H         4.106266         1.644891        -1.423340
 H         2.209599        -0.149837        -1.937066
