19
Iteration:  1040
 C        -0.028063         0.368941         0.084337
 C         1.414781         0.162021        -0.041504
 O         1.840780        -1.261806         0.003327
 C         3.115829        -0.476069         0.123939
 C         2.387763         0.506360         1.085889
 C         3.030879         1.901086         1.160873
 O         2.803341         2.558717        -0.054540
 C         3.044636         1.846125        -1.275323
 C         2.581480         0.383997        -1.116100
 H        -0.268228         0.093345         1.053049
 H        -0.194579         1.494723        -0.061368
 H        -0.649658        -0.065643        -0.683266
 H         3.904945        -1.230508         0.165066
 H         2.097179         0.044413         2.097583
 H         2.425579         2.465326         1.915861
 H         4.024050         1.864384         1.633389
 H         2.310048         2.138079        -2.124804
 H         4.168264         1.876657        -1.410611
 H         2.556939        -0.187232        -2.127733
