19
Iteration:  2338
 C         0.047216         0.499900        -0.049481
 C         1.471493         0.112893        -0.024646
 O         1.871050        -1.353660         0.087244
 C         3.102089        -0.522622         0.053520
 C         2.509395         0.462081         1.160988
 C         2.942914         1.994498         1.160573
 O         2.771507         2.580067        -0.095375
 C         2.985037         1.786474        -1.156599
 C         2.453356         0.391298        -1.112871
 H        -0.445892        -0.087320         0.845182
 H        -0.057045         1.547666        -0.134221
 H        -0.439674         0.200071        -1.018738
 H         4.136224        -1.038903         0.112344
 H         2.389824        -0.067004         2.139054
 H         2.465855         2.724376         1.802891
 H         4.095161         2.018631         1.290480
 H         2.336329         2.224364        -1.955387
 H         4.047438         1.860827        -1.382433
 H         2.297804        -0.152081        -2.037562
