19
Iteration:  2944
 C        -0.089613         0.373084         0.017787
 C         1.351167         0.084228        -0.118517
 O         1.874092        -1.328554         0.102447
 C         3.049435        -0.491899         0.156513
 C         2.498828         0.531067         1.098957
 C         3.122627         1.928030         1.096688
 O         2.781865         2.677627        -0.104573
 C         2.990818         1.819893        -1.262875
 C         2.524742         0.383418        -1.017311
 H        -0.263707         0.014150         1.111801
 H        -0.350473         1.394617        -0.198988
 H        -0.549477        -0.392007        -0.753034
 H         4.070650        -1.010723         0.320772
 H         2.374744         0.124309         2.089039
 H         2.740008         2.518009         1.878039
 H         4.265608         1.846760         1.197961
 H         2.456007         2.332714        -2.006882
 H         4.083959         1.827266        -1.429757
 H         2.542612        -0.219297        -1.924817
