19
Iteration:   980charge 0 multiplicity 1
 C        -0.035772         0.465744        -0.189679
 C         1.381603         0.135867         0.044774
 O         1.882475        -1.323636         0.206237
 C         3.114974        -0.433320         0.022581
 C         2.538151         0.451683         1.103674
 C         3.141659         1.897680         1.168389
 O         2.738360         2.623228        -0.025620
 C         2.984810         1.775233        -1.201868
 C         2.385256         0.369372        -1.108666
 H        -0.732234        -0.141686         0.539391
 H        -0.218637         1.536397        -0.088653
 H        -0.278229         0.052903        -1.187351
 H         3.970903        -1.073243        -0.083444
 H         2.484165        -0.083679         2.006249
 H         2.768115         2.548992         1.938244
 H         4.231307         1.810793         1.193082
 H         2.583036         2.299716        -1.971686
 H         4.101512         1.992804        -1.368585
 H         2.270644        -0.132135        -2.020517
