19
Iteration:  3861
 C         0.013618         0.536151         0.089345
 C         1.367613         0.143685        -0.020158
 O         1.939028        -1.320615         0.133106
 C         3.104864        -0.491516         0.068611
 C         2.443201         0.479039         1.136735
 C         2.911376         1.957877         1.127119
 O         2.723576         2.571639        -0.184873
 C         3.043706         1.708294        -1.275227
 C         2.598262         0.360375        -1.071201
 H        -0.522830         0.250243         1.009538
 H        -0.123414         1.664135        -0.010804
 H        -0.636237         0.126222        -0.723475
 H         4.031609        -1.131327         0.246475
 H         2.429279         0.063489         2.104523
 H         2.324927         2.545099         1.722553
 H         4.019200         1.997530         1.363522
 H         2.700660         2.276050        -2.181779
 H         4.246794         1.621635        -1.488974
 H         2.381709        -0.208362        -1.970198
