19
Iteration:   403
 C        -0.132993         0.527325         0.139725
 C         1.352034         0.062102        -0.020545
 O         1.976138        -1.359579        -0.023725
 C         3.152180        -0.482365         0.075882
 C         2.403930         0.521358         1.128459
 C         3.038880         1.869058         1.133703
 O         2.768194         2.567049        -0.111312
 C         3.070757         1.793046        -1.194915
 C         2.533700         0.448691        -1.112272
 H        -0.513360         0.485552         1.141780
 H        -0.286977         1.627992        -0.135903
 H        -0.877581         0.022137        -0.495658
 H         4.195195        -0.905095         0.055424
 H         2.111778         0.050905         2.104201
 H         2.466060         2.520772         1.859694
 H         4.072651         1.582189         1.446773
 H         2.567033         2.229243        -2.062803
 H         4.152000         1.765070        -1.497555
 H         2.432022        -0.022612        -2.152586
