19
Iteration:  3233charge 0 multiplicity 1
 C         0.047224         0.433908         0.022527
 C         1.463893         0.187826        -0.015692
 O         1.815685        -1.336027         0.147832
 C         3.069873        -0.544003         0.114162
 C         2.525457         0.527724         1.079303
 C         3.022722         2.007295         1.063948
 O         2.682600         2.625397        -0.125015
 C         3.022636         1.778475        -1.229148
 C         2.525496         0.314683        -1.078915
 H        -0.449947        -0.274900         0.624112
 H        -0.299430         1.523378         0.189761
 H        -0.374893         0.165044        -0.907767
 H         4.001671        -1.121130         0.287970
 H         2.316282        -0.041870         2.002052
 H         2.800310         2.499635         1.978922
 H         4.141983         2.089815         1.305062
 H         2.547979         2.114609        -2.095989
 H         4.105366         1.746235        -1.353200
 H         2.351062        -0.247809        -1.963312
