19
Iteration:  3234charge 0 multiplicity 1
 C         0.052531         0.423980         0.028123
 C         1.458321         0.191575        -0.026923
 O         1.815761        -1.336248         0.152622
 C         3.076030        -0.552845         0.129205
 C         2.524966         0.528906         1.071774
 C         3.025452         1.992927         1.069526
 O         2.680418         2.628299        -0.125213
 C         3.028292         1.785742        -1.238038
 C         2.523161         0.323974        -1.074671
 H        -0.467850        -0.273145         0.631211
 H        -0.271447         1.543072         0.207573
 H        -0.361921         0.174836        -0.934120
 H         3.959546        -1.120739         0.273898
 H         2.299634        -0.006061         2.000840
 H         2.795486         2.503239         1.978388
 H         4.103458         2.085510         1.281916
 H         2.546738         2.123624        -2.125650
 H         4.102912         1.751034        -1.375635
 H         2.330813        -0.232096        -1.977195
