19
Iteration:  4397charge 0 multiplicity 1
 C        -0.116780         0.444383         0.117099
 C         1.428118         0.102860        -0.044319
 O         1.787238        -1.329012         0.104027
 C         3.127393        -0.514421         0.171939
 C         2.524490         0.430672         1.089166
 C         2.934283         2.002182         1.082910
 O         2.811310         2.662870        -0.163136
 C         3.042962         1.786639        -1.310604
 C         2.621947         0.352004        -1.057701
 H        -0.530647         0.030382         1.004682
 H        -0.318416         1.532997         0.260708
 H        -0.492095        -0.105335        -0.647377
 H         4.150317        -1.010095         0.109175
 H         2.444996         0.201159         2.131574
 H         2.279549         2.512945         1.722110
 H         4.061221         1.998834         1.401266
 H         2.596904         2.311649        -2.145862
 H         4.084895         1.635717        -1.542542
 H         2.641160        -0.150910        -2.025574
