19
Iteration:  4286
 C        -0.051983         0.505307        -0.037010
 C         1.397954         0.137433         0.016780
 O         1.864516        -1.320375         0.141654
 C         3.166313        -0.464744         0.127014
 C         2.445053         0.547580         1.144112
 C         3.124656         1.905962         1.105869
 O         2.712504         2.550234        -0.128828
 C         2.933266         1.816698        -1.245768
 C         2.579461         0.277381        -1.075734
 H        -0.639562         0.054785         0.807291
 H        -0.232982         1.629538        -0.289765
 H        -0.574517        -0.039577        -0.858124
 H         4.215237        -0.872395         0.207816
 H         2.299770         0.039877         2.164133
 H         2.596147         2.632167         1.789965
 H         4.203785         1.794169         1.249944
 H         2.401644         2.358113        -2.053374
 H         3.986049         1.935780        -1.754544
 H         2.619088        -0.369659        -1.979435
