19
Iteration:   524charge 0 multiplicity 1
 C         0.016162         0.451264         0.085328
 C         1.409702         0.129339        -0.058280
 O         1.828901        -1.263237         0.008197
 C         3.119934        -0.529794         0.091276
 C         2.472763         0.500216         1.106631
 C         2.965525         1.897866         1.140675
 O         2.781443         2.580397        -0.111188
 C         2.990829         1.802596        -1.207927
 C         2.595624         0.384373        -1.083486
 H        -0.193393         0.069109         1.104468
 H         0.003617         1.575042         0.066382
 H        -0.752758         0.005349        -0.655100
 H         4.010219        -1.191052         0.149179
 H         2.348933         0.125241         2.135068
 H         2.339907         2.401035         1.912073
 H         3.977450         1.995272         1.633179
 H         2.445164         2.119907        -2.067508
 H         4.045885         1.884942        -1.543774
 H         2.408807        -0.138277        -2.075838
