19
Iteration:  4050
 C         0.017171         0.469333         0.006725
 C         1.413379         0.181584         0.102519
 O         1.833456        -1.304293         0.170561
 C         3.098121        -0.513919         0.077079
 C         2.566335         0.470795         1.106297
 C         2.975749         1.967725         1.057847
 O         2.649563         2.599343        -0.151374
 C         3.130700         1.763673        -1.272090
 C         2.491649         0.332505        -1.096832
 H        -0.486792         0.035194         0.905099
 H        -0.113532         1.661316        -0.093465
 H        -0.460640        -0.121288        -0.833515
 H         4.110197        -1.031737         0.050807
 H         2.502250         0.145668         2.124916
 H         2.341220         2.410727         1.779832
 H         4.107749         2.031207         1.292451
 H         2.872134         2.272556        -2.205263
 H         4.151045         1.664774        -1.261815
 H         2.170773        -0.297913        -1.935987
