19
Iteration:  1405
 C        -0.166834         0.437730         0.047017
 C         1.327852         0.165752         0.094316
 O         1.914768        -1.307709         0.120651
 C         3.064595        -0.468452        -0.028150
 C         2.552830         0.455524         1.056968
 C         2.942564         1.887000         1.126917
 O         2.746670         2.580146        -0.083667
 C         3.195656         1.808686        -1.198551
 C         2.541836         0.435381        -1.155985
 H        -0.819078         0.257094         0.934654
 H        -0.199778         1.462853        -0.313047
 H        -0.392454        -0.299109        -0.732895
 H         4.063334        -0.816132        -0.057029
 H         2.676064        -0.156926         1.995898
 H         2.421104         2.287325         1.946581
 H         3.987225         1.976714         1.417538
 H         2.637983         2.269856        -2.024692
 H         4.342149         1.710297        -1.079160
 H         2.441313        -0.157418        -2.082417
