19
Iteration:  4607charge 0 multiplicity 1
 C        -0.071513         0.421833         0.032053
 C         1.374561         0.123640        -0.002028
 O         1.922605        -1.353827         0.142465
 C         3.078752        -0.454947         0.159373
 C         2.420895         0.507788         1.148009
 C         3.064510         1.950024         1.048115
 O         2.773841         2.625232        -0.138443
 C         3.030077         1.777317        -1.279226
 C         2.554200         0.341613        -1.115879
 H        -0.680851         0.065799         0.839859
 H        -0.187182         1.503498         0.268547
 H        -0.554699         0.091223        -0.851620
 H         4.116068        -0.870568         0.427138
 H         2.229793         0.035624         2.117999
 H         2.628864         2.559625         1.730575
 H         4.132480         1.859335         1.260557
 H         2.553480         2.255293        -2.156692
 H         4.100587         1.857242        -1.619509
 H         2.347228        -0.158460        -2.058795
