19
Iteration:  4356charge 0 multiplicity 1
 C        -0.050121         0.377768         0.035003
 C         1.406126         0.185041         0.031392
 O         1.910079        -1.324952         0.156814
 C         3.091877        -0.404297         0.023510
 C         2.508014         0.531579         1.110241
 C         2.980552         1.945809         1.137388
 O         2.866520         2.607736        -0.154908
 C         3.043652         1.698681        -1.234352
 C         2.392049         0.376065        -1.106566
 H        -0.466088        -0.110026         0.941030
 H        -0.447314         1.496225        -0.054079
 H        -0.601118        -0.200848        -0.762023
 H         4.056886        -0.999853        -0.025342
 H         2.184635         0.113037         2.057285
 H         2.199107         2.545946         1.810783
 H         3.941341         2.089210         1.456063
 H         2.993847         2.250912        -2.228358
 H         4.192028         1.506696        -1.242270
 H         2.305508        -0.190208        -2.035313
