19
Iteration:   669
 C        -0.120361         0.471156        -0.091329
 C         1.375859         0.120545         0.049010
 O         1.919452        -1.286070         0.149483
 C         3.167193        -0.489247        -0.015415
 C         2.547922         0.428591         1.150851
 C         2.999241         1.924804         1.180192
 O         2.758316         2.626025        -0.062049
 C         3.067444         1.792480        -1.261455
 C         2.423868         0.380578        -1.051252
 H        -0.794699        -0.093126         0.625751
 H        -0.085222         1.493577         0.039849
 H        -0.407803         0.288934        -1.219820
 H         4.056597        -1.080747        -0.216989
 H         2.607178        -0.188519         1.995599
 H         2.519757         2.452291         1.997293
 H         4.071548         1.915453         1.334072
 H         2.449545         2.248265        -1.902913
 H         4.138270         1.689625        -1.676757
 H         2.311703        -0.158142        -1.986765
