19
Iteration:   199
 C        -0.027787         0.420267         0.125725
 C         1.452471         0.162999        -0.039545
 O         1.785454        -1.240605         0.022085
 C         3.079750        -0.608208         0.044561
 C         2.477459         0.464433         1.043650
 C         2.958246         1.917205         1.105230
 O         2.791586         2.679084        -0.077864
 C         3.049389         1.812420        -1.208159
 C         2.618947         0.338712        -1.009492
 H        -0.214784         0.208198         1.150870
 H        -0.223719         1.405397        -0.205903
 H        -0.612877        -0.297339        -0.633833
 H         4.074578        -1.272065         0.009409
 H         2.332823         0.023356         2.080711
 H         2.290316         2.462357         1.909363
 H         4.018587         1.919418         1.479481
 H         2.399491         2.251708        -2.112395
 H         4.137574         1.817197        -1.531480
 H         2.508421        -0.071742        -2.091553
