19
Iteration:  2322
 C        -0.080154         0.494272         0.022627
 C         1.366701         0.064742         0.002377
 O         1.914003        -1.309694         0.047251
 C         3.150589        -0.463498         0.095739
 C         2.483168         0.486692         1.084894
 C         2.964825         1.887161         1.190309
 O         2.761263         2.628151        -0.083021
 C         3.015002         1.783523        -1.326177
 C         2.597736         0.350462        -1.035641
 H        -0.566800         0.179781         0.881382
 H         0.054834         1.645606        -0.005648
 H        -0.731832         0.189143        -0.778241
 H         4.064430        -1.027093         0.058143
 H         2.236951         0.046050         2.045652
 H         2.281113         2.327316         1.971286
 H         3.946708         2.010123         1.679159
 H         2.560662         2.348225        -2.132323
 H         4.125482         1.724479        -1.663330
 H         2.497713        -0.230285        -1.987259
