19
Iteration:  2148
 C        -0.093937         0.485871        -0.082530
 C         1.441955         0.141486         0.009773
 O         1.896205        -1.337392         0.146389
 C         3.091166        -0.482381         0.033368
 C         2.609698         0.499348         1.088003
 C         3.035370         1.943139         1.224952
 O         2.702830         2.550064        -0.051399
 C         3.032359         1.806998        -1.232493
 C         2.486249         0.327910        -1.129821
 H        -0.737797         0.291114         0.808750
 H        -0.164633         1.677426        -0.294577
 H        -0.588670         0.131906        -1.057280
 H         4.171603        -1.001872        -0.162258
 H         2.301293         0.128508         2.071314
 H         2.285137         2.292307         1.859808
 H         4.042978         2.110233         1.508352
 H         2.613764         2.383678        -2.020031
 H         4.141242         1.751067        -1.256810
 H         2.363279        -0.290074        -1.999852
