19
Iteration:   355
 C         0.009521         0.441572        -0.012377
 C         1.436627         0.140472         0.034451
 O         1.789496        -1.305011         0.079015
 C         3.140064        -0.620382        -0.059842
 C         2.642745         0.449642         1.104239
 C         2.950451         2.029334         1.179947
 O         2.791414         2.642489        -0.054745
 C         3.004263         1.807043        -1.201685
 C         2.458826         0.367315        -1.079201
 H        -0.521942         0.193520         0.922410
 H        -0.209588         1.485894        -0.134980
 H        -0.500085        -0.048337        -0.764717
 H         3.946101        -1.330630        -0.111535
 H         2.443183        -0.168787         1.951482
 H         2.281339         2.517497         1.825135
 H         3.980273         2.116928         1.593423
 H         2.632349         2.392881        -2.073118
 H         4.041505         1.682311        -1.290423
 H         2.150439        -0.068593        -1.984486
