19
Iteration:  1908charge 0 multiplicity 1
 C        -0.031421         0.483960        -0.012668
 C         1.434772         0.069616         0.026709
 O         1.869858        -1.322652         0.076159
 C         3.130782        -0.466666         0.058486
 C         2.484764         0.464378         1.125949
 C         2.950814         1.914277         1.127603
 O         2.759329         2.625886        -0.085897
 C         3.019522         1.774776        -1.217737
 C         2.534978         0.363177        -1.102231
 H        -0.509100         0.166808         0.932410
 H         0.004100         1.615032         0.078594
 H        -0.506923         0.069476        -0.941210
 H         4.058974        -0.956859         0.004891
 H         2.395310         0.070343         2.175683
 H         2.398439         2.560307         1.889631
 H         3.997690         1.917414         1.363218
 H         2.568229         2.362874        -2.046327
 H         4.113712         1.830998        -1.475146
 H         2.366335        -0.183366        -1.992274
