19
Iteration:  3539
 C        -0.048603         0.355829         0.005794
 C         1.413073         0.122241         0.063070
 O         1.870843        -1.309763         0.162737
 C         3.103995        -0.522589         0.016042
 C         2.463470         0.546362         1.160753
 C         2.971623         1.954807         1.105209
 O         2.817894         2.662965        -0.134408
 C         3.027219         1.733426        -1.285709
 C         2.519806         0.391491        -1.084033
 H        -0.523833         0.455802         0.992457
 H        -0.219198         1.397128        -0.511354
 H        -0.608242        -0.368571        -0.556507
 H         4.059266        -1.133377        -0.152018
 H         2.378697         0.366971         2.253167
 H         2.610964         2.640120         1.844611
 H         4.020399         1.839296         1.399878
 H         2.624858         2.247299        -2.132136
 H         4.162834         1.582219        -1.462301
 H         2.313128        -0.105474        -1.992866
