19
Iteration:   418charge 0 multiplicity 1
 C        -0.031409         0.446134         0.057094
 C         1.383699         0.107366         0.025268
 O         1.880756        -1.347209         0.018299
 C         3.052567        -0.435188         0.026494
 C         2.438123         0.453411         1.055161
 C         3.026942         1.929551         1.137594
 O         2.786196         2.632778        -0.028342
 C         3.062599         1.820271        -1.250882
 C         2.492366         0.345390        -1.064109
 H        -0.413474         0.283164         1.098372
 H         0.075954         1.442447        -0.125619
 H        -0.626168        -0.150008        -0.749491
 H         4.031990        -0.922363         0.107220
 H         2.390661         0.014415         2.027723
 H         2.748673         2.502056         2.052184
 H         4.102685         1.919994         1.169721
 H         2.576516         2.394127        -2.048778
 H         4.215532         1.801411        -1.384940
 H         2.368491        -0.307494        -1.919814
