19
Iteration:  1797charge 0 multiplicity 1
 C        -0.093646         0.364502         0.077167
 C         1.380997         0.145970        -0.096862
 O         1.862431        -1.303242         0.014197
 C         3.111277        -0.485991         0.103981
 C         2.523230         0.496049         1.117815
 C         3.053754         1.995550         1.161294
 O         2.766708         2.618264        -0.088464
 C         3.063263         1.782818        -1.183732
 C         2.525207         0.357530        -1.105442
 H        -0.477006         0.164254         1.018216
 H        -0.444655         1.416882        -0.403192
 H        -0.752643        -0.166793        -0.585111
 H         3.949299        -1.148650        -0.091408
 H         2.263768         0.175247         2.140823
 H         2.374399         2.467930         1.925036
 H         4.101909         2.049772         1.495607
 H         2.780479         2.397165        -2.057218
 H         4.129745         1.508365        -1.227418
 H         2.487131        -0.228743        -2.013185
