19
Iteration:  3828charge 0 multiplicity 1
 C         0.013395         0.482347         0.009221
 C         1.417477         0.169351         0.009611
 O         1.822396        -1.328710         0.185157
 C         3.123339        -0.472474         0.052877
 C         2.590735         0.464843         1.112952
 C         2.914576         1.939233         1.083198
 O         2.696278         2.621505        -0.192689
 C         3.094196         1.761042        -1.234982
 C         2.499261         0.332102        -1.031724
 H        -0.415686        -0.042399         0.880247
 H        -0.246704         1.589658         0.188365
 H        -0.336459         0.180178        -1.018372
 H         4.048901        -1.134313         0.133808
 H         2.551041         0.056543         2.083024
 H         2.296494         2.461713         1.749942
 H         4.055176         2.135597         1.493823
 H         2.689464         2.216476        -2.184236
 H         4.198663         1.404328        -1.309604
 H         2.265680        -0.118050        -2.003476
