19
Iteration:  3055charge 0 multiplicity 1
 C        -0.078701         0.455584         0.048711
 C         1.414918         0.140219         0.032174
 O         1.893692        -1.265441         0.051911
 C         3.095034        -0.469957         0.081568
 C         2.520016         0.480094         1.177826
 C         2.998032         1.959043         1.162014
 O         2.696508         2.588634        -0.157161
 C         3.002769         1.724072        -1.306330
 C         2.672148         0.311875        -1.062863
 H        -0.658114        -0.068169         0.894380
 H        -0.212940         1.553088         0.313262
 H        -0.648439         0.292871        -0.948203
 H         4.159603        -0.917128         0.264072
 H         2.194072         0.150640         2.174134
 H         2.560864         2.688210         1.886507
 H         4.072672         1.784779         1.146511
 H         2.398521         2.013110        -2.119536
 H         4.110753         1.778700        -1.617985
 H         2.336967        -0.109063        -2.000793
