19
Iteration:  4884
 C        -0.017701         0.527648        -0.007642
 C         1.487814         0.224279         0.075216
 O         1.873458        -1.348055         0.224183
 C         3.102576        -0.557430         0.087170
 C         2.573581         0.449152         1.067467
 C         2.940637         1.983255         1.102907
 O         2.665453         2.559940        -0.156269
 C         3.063959         1.784767        -1.273646
 C         2.496601         0.381166        -1.115012
 H        -0.495336         0.448635         1.048028
 H        -0.394222         1.411005        -0.490988
 H        -0.433927        -0.300577        -0.734918
 H         3.925018        -1.203692         0.320883
 H         2.439490        -0.015508         2.135734
 H         2.257126         2.490136         1.753486
 H         4.172888         1.928914         1.424510
 H         2.789179         2.309350        -2.286589
 H         4.201389         1.765814        -1.489113
 H         2.389391        -0.186986        -2.094205
