19
Iteration:  1191charge 0 multiplicity 1
 C        -0.100060         0.417129        -0.144009
 C         1.406694         0.171716         0.002143
 O         1.850238        -1.237535         0.107278
 C         3.133986        -0.525117        -0.016527
 C         2.609061         0.480427         1.106686
 C         3.079758         1.905704         1.226438
 O         2.773281         2.593860        -0.018926
 C         2.934919         1.755122        -1.185293
 C         2.494243         0.367252        -1.081843
 H        -0.822257         0.083308         0.725108
 H        -0.205347         1.584105        -0.076518
 H        -0.540070         0.007540        -1.158826
 H         4.026905        -1.165861         0.065360
 H         2.694177         0.057943         2.142228
 H         2.454241         2.399881         2.125125
 H         4.177749         2.213008         1.404843
 H         2.331113         2.247796        -1.990941
 H         4.023443         1.798134        -1.550142
 H         2.427008        -0.242795        -2.079875
