19
Iteration:  4577
 C        -0.051584         0.349117         0.043657
 C         1.418649         0.164358         0.044157
 O         1.856376        -1.256550         0.142113
 C         3.122990        -0.479876         0.057033
 C         2.525563         0.517376         1.118524
 C         2.957141         1.989692         1.097119
 O         2.827424         2.591022        -0.155282
 C         3.066176         1.723017        -1.263141
 C         2.475652         0.349589        -1.103572
 H        -0.500743        -0.183140         0.903782
 H        -0.359040         1.343900         0.175303
 H        -0.483076         0.089449        -0.925483
 H         4.044020        -1.036448         0.202294
 H         2.391319         0.020647         2.100781
 H         2.171208         2.587551         1.653558
 H         3.963926         2.148954         1.570046
 H         2.545663         2.265679        -2.084786
 H         4.200355         1.606747        -1.330534
 H         2.160904        -0.002398        -2.074070
