19
Iteration:  2399charge 0 multiplicity 1
 C         0.011938         0.374790        -0.058322
 C         1.425379         0.169136        -0.009471
 O         1.893576        -1.240720         0.051592
 C         3.075518        -0.497259         0.146087
 C         2.428300         0.506348         1.103384
 C         3.113324         1.866753         1.124626
 O         2.684637         2.656498        -0.071624
 C         3.012484         1.795062        -1.200307
 C         2.507680         0.343657        -1.048535
 H        -0.507730         0.118109         0.826622
 H        -0.262335         1.442557        -0.036449
 H        -0.284117        -0.219386        -0.935332
 H         4.019511        -1.095494         0.129418
 H         2.154340        -0.054712         2.011844
 H         2.950368         2.457915         2.087494
 H         4.130959         1.566987         1.046489
 H         2.460953         2.351811        -2.013174
 H         4.041227         1.774032        -1.530586
 H         2.392009        -0.138651        -2.045382
