19
Iteration:  4049charge 0 multiplicity 1
 C         0.013959         0.471483         0.009503
 C         1.419980         0.179848         0.096907
 O         1.828885        -1.314922         0.171243
 C         3.095003        -0.506730         0.083682
 C         2.574115         0.470442         1.112261
 C         2.971900         1.969325         1.057537
 O         2.650934         2.604890        -0.150422
 C         3.133064         1.767440        -1.268226
 C         2.488201         0.320466        -1.105169
 H        -0.486074         0.057625         0.882242
 H        -0.118557         1.653636        -0.081596
 H        -0.400459        -0.111678        -0.814710
 H         4.128541        -1.019223         0.019109
 H         2.507163         0.168751         2.098360
 H         2.328434         2.422371         1.771378
 H         4.058316         1.999337         1.269908
 H         2.869427         2.287495        -2.201472
 H         4.188651         1.661643        -1.263897
 H         2.132591        -0.275680        -1.941197
