19
Iteration:  2574charge 0 multiplicity 1
 C         0.058957         0.440784        -0.138614
 C         1.466924         0.098011         0.094429
 O         1.814742        -1.340821         0.199050
 C         3.141902        -0.523609         0.009276
 C         2.512782         0.371227         1.123016
 C         3.054808         1.921056         1.146391
 O         2.711315         2.656053        -0.130108
 C         2.950589         1.862008        -1.215863
 C         2.471634         0.439285        -1.065975
 H        -0.636699         0.213604         0.684973
 H         0.187841         1.472148        -0.356377
 H        -0.444377         0.095851        -1.055708
 H         4.051379        -0.916709         0.054587
 H         2.368003        -0.060626         2.153435
 H         2.601385         2.310634         2.142960
 H         4.173738         2.064622         1.235564
 H         2.247691         2.234043        -2.078918
 H         4.068312         1.900611        -1.381500
 H         2.317102        -0.114081        -2.021546
