19
Iteration:  4370charge 0 multiplicity 1
 C        -0.078724         0.381354         0.096036
 C         1.413004         0.159607         0.028774
 O         1.899033        -1.293548         0.133864
 C         3.113098        -0.494344         0.056798
 C         2.437290         0.510309         1.037328
 C         2.906913         2.015631         1.133036
 O         2.840527         2.567955        -0.142302
 C         3.168260         1.751187        -1.289439
 C         2.426019         0.362324        -1.077429
 H        -0.583282         0.068474         1.057640
 H        -0.234757         1.438354         0.140951
 H        -0.379043        -0.197304        -0.846190
 H         4.124433        -0.808853         0.094581
 H         2.504483         0.134411         2.086613
 H         2.309089         2.711138         1.844014
 H         4.012372         1.826417         1.448862
 H         2.631366         2.323428        -2.068781
 H         4.319044         1.546614        -1.516841
 H         2.079664        -0.115721        -2.021700
