19
Iteration:   771
 C         0.013308         0.416931        -0.050498
 C         1.417423         0.144438         0.068219
 O         1.815176        -1.324450         0.125700
 C         3.093304        -0.532798         0.005762
 C         2.629935         0.523096         1.051327
 C         2.950827         1.921871         1.206581
 O         2.808055         2.592065        -0.070813
 C         3.004366         1.850584        -1.203721
 C         2.458462         0.377493        -1.113919
 H        -0.605207         0.124362         0.757081
 H        -0.092922         1.618442        -0.253003
 H        -0.294891        -0.169169        -0.875655
 H         4.138697        -1.089135        -0.053296
 H         2.486280        -0.086248         2.029156
 H         2.169878         2.267661         1.944152
 H         4.014457         2.053359         1.464365
 H         2.467026         2.381030        -2.009871
 H         4.119096         1.840882        -1.469531
 H         2.061572        -0.091690        -2.064980
