19
Iteration:  3533
 C         0.002067         0.324264         0.032370
 C         1.412609         0.116400         0.074734
 O         1.885637        -1.306137         0.175153
 C         3.053229        -0.484626         0.017232
 C         2.470398         0.581041         1.141215
 C         2.979896         1.980007         1.116843
 O         2.813733         2.654069        -0.116478
 C         3.082860         1.718917        -1.294669
 C         2.449153         0.356572        -1.107499
 H        -0.485322         0.532162         0.997359
 H        -0.024652         1.219122        -0.518622
 H        -0.650292        -0.267912        -0.712368
 H         3.893645        -1.135344        -0.299284
 H         2.215287         0.293871         2.170399
 H         2.364454         2.555487         1.936184
 H         4.139880         1.749770         1.251149
 H         2.737525         2.391997        -2.154267
 H         4.138764         1.699305        -1.309620
 H         2.325209        -0.164547        -2.148960
