19
Iteration:   255
 C        -0.062107         0.483287        -0.028517
 C         1.426144         0.154714         0.013765
 O         1.870618        -1.348625         0.081902
 C         3.108590        -0.475314         0.059742
 C         2.533775         0.469199         1.076044
 C         3.034724         1.928319         1.140889
 O         2.830180         2.574379        -0.058216
 C         2.999683         1.799103        -1.204542
 C         2.403938         0.400887        -1.074625
 H        -0.618437         0.047614         0.821334
 H        -0.220822         1.510496        -0.075627
 H        -0.327457        -0.158905        -0.981304
 H         4.205347        -0.902353         0.103306
 H         2.442945         0.013685         2.102393
 H         2.369120         2.348180         1.954089
 H         4.086112         1.913976         1.516167
 H         2.525554         2.429530        -2.071229
 H         4.062456         1.631628        -1.515091
 H         2.172141        -0.017918        -2.116836
