19
Iteration:   939
 C         0.098506         0.491173         0.064530
 C         1.502652         0.155244        -0.002627
 O         1.801603        -1.324330         0.000060
 C         3.061270        -0.526290         0.088473
 C         2.408807         0.435378         1.168288
 C         2.979126         1.890235         1.145689
 O         2.734371         2.634186        -0.101164
 C         2.960969         1.852781        -1.284775
 C         2.657682         0.356542        -1.068424
 H        -0.290814         0.183515         1.090754
 H        -0.011722         1.488046        -0.053926
 H        -0.538080        -0.110402        -0.655370
 H         3.992994        -0.931241         0.174052
 H         2.091840         0.018562         2.115168
 H         2.426940         2.389803         1.946106
 H         4.066160         1.914170         1.426115
 H         2.514279         2.218208        -2.241491
 H         3.971500         1.767133        -1.590199
 H         2.417832        -0.204101        -2.023170
