19
Iteration:  4156
 C        -0.050300         0.362224        -0.050787
 C         1.386628         0.145440         0.080565
 O         1.840156        -1.286105         0.217342
 C         3.102301        -0.450260         0.018575
 C         2.478517         0.547272         1.088910
 C         2.986565         1.923156         1.115544
 O         2.858145         2.597248        -0.138505
 C         3.012504         1.782650        -1.308021
 C         2.546210         0.346090        -1.050600
 H        -0.461461        -0.014141         0.848011
 H        -0.468203         1.374530        -0.124432
 H        -0.391052        -0.176626        -0.903778
 H         4.018681        -1.141813        -0.015902
 H         2.515915         0.119928         2.097237
 H         2.613196         2.742290         1.825860
 H         4.086715         1.862621         1.538126
 H         2.504238         2.380049        -2.072680
 H         4.045947         1.777120        -1.456067
 H         2.061957        -0.228660        -1.819201
