19
Iteration:  3760
 C         0.007392         0.364418        -0.047922
 C         1.419824         0.172783         0.072446
 O         1.857239        -1.383089         0.150159
 C         3.089032        -0.442062         0.150493
 C         2.434132         0.566035         1.131462
 C         3.058297         1.939648         1.142860
 O         2.827729         2.605001        -0.195955
 C         2.999292         1.823006        -1.274584
 C         2.458309         0.364665        -1.095134
 H        -0.571704         0.198286         0.922445
 H        -0.302825         1.352989        -0.204923
 H        -0.368619        -0.217892        -0.996591
 H         4.086358        -0.918433         0.264856
 H         2.261237         0.061989         2.100783
 H         2.763797         2.626637         1.926260
 H         4.229973         1.598822         1.160460
 H         2.277349         2.243755        -1.995191
 H         4.048468         1.978241        -1.576970
 H         2.267642        -0.384671        -1.915269
