19
Iteration:  3620charge 0 multiplicity 1
 C        -0.147736         0.467507        -0.059362
 C         1.368010         0.116971         0.065868
 O         1.886014        -1.316877         0.191368
 C         3.172447        -0.485662         0.058854
 C         2.583116         0.432117         1.154959
 C         3.062285         2.051478         1.101894
 O         2.689776         2.584013        -0.153519
 C         3.068270         1.743819        -1.264240
 C         2.507737         0.359059        -1.051058
 H        -0.805989        -0.054785         0.697048
 H        -0.095967         1.478844         0.207297
 H        -0.496349         0.370027        -1.159171
 H         4.009725        -1.288880         0.049401
 H         2.527960         0.052573         2.141655
 H         2.453282         2.721514         1.725099
 H         4.196882         2.043513         1.192929
 H         2.445232         2.231736        -2.084627
 H         4.177417         1.705433        -1.539102
 H         2.250696        -0.208342        -2.006001
