19
Iteration:  4318charge 0 multiplicity 1
 C        -0.044501         0.374634        -0.008856
 C         1.418575         0.170849         0.031012
 O         1.811425        -1.333552         0.141281
 C         3.100475        -0.516476         0.123074
 C         2.452962         0.481914         1.136084
 C         3.086409         1.915445         1.062744
 O         2.787342         2.654145        -0.175387
 C         3.016980         1.864413        -1.268044
 C         2.520434         0.363584        -1.062404
 H        -0.348377         0.039736         0.993185
 H        -0.339524         1.430347        -0.214777
 H        -0.358794        -0.236368        -0.867200
 H         4.072974        -1.008281         0.228140
 H         2.277452         0.191250         2.235724
 H         2.655369         2.509243         1.813409
 H         4.107769         1.958786         1.535256
 H         2.400453         2.250785        -2.038809
 H         4.079564         1.746544        -1.456373
 H         2.499554        -0.310418        -1.941643
