19
Iteration:  4030charge 0 multiplicity 1
 C         0.009790         0.509040         0.036691
 C         1.434305         0.076211         0.076397
 O         1.836873        -1.379555         0.196307
 C         3.159948        -0.562109        -0.018151
 C         2.543135         0.525426         1.051938
 C         2.925386         2.028406         1.098357
 O         2.719858         2.651204        -0.198222
 C         3.078604         1.740625        -1.187432
 C         2.464406         0.348410        -1.063796
 H        -0.609714         0.105131         0.903922
 H        -0.035940         1.640933        -0.052059
 H        -0.631201         0.150191        -0.862968
 H         4.041856        -1.144934         0.092132
 H         2.390417         0.001454         2.054375
 H         2.365992         2.577484         1.877168
 H         4.044669         2.243356         1.387732
 H         2.804249         2.149629        -2.162490
 H         4.199520         1.652529        -1.186340
 H         2.378354        -0.166038        -2.041932
