19
Iteration:   805charge 0 multiplicity 1
 C        -0.043060         0.412744        -0.068259
 C         1.397831         0.113308         0.020059
 O         1.893875        -1.344937         0.031210
 C         3.100689        -0.474253         0.143409
 C         2.481807         0.514309         1.103319
 C         3.057676         1.869072         1.142212
 O         2.855144         2.606715        -0.084578
 C         2.902666         1.836461        -1.215894
 C         2.504538         0.384200        -1.035984
 H        -0.649086        -0.010131         0.747058
 H        -0.198696         1.576772        -0.017579
 H        -0.455019         0.184745        -1.002941
 H         4.105570        -0.995375         0.123224
 H         2.272772         0.097793         2.151108
 H         2.707131         2.493787         1.994248
 H         4.136838         1.926583         1.335696
 H         2.227342         2.413235        -1.886348
 H         3.909246         1.899305        -1.723162
 H         2.383049        -0.099139        -2.025354
