19
Iteration:    84
 C        -0.047715         0.440016         0.046948
 C         1.425313         0.137717        -0.042845
 O         1.892864        -1.281317         0.032777
 C         3.066612        -0.498349         0.126340
 C         2.412503         0.467646         1.121475
 C         3.105178         1.896728         1.149587
 O         2.767701         2.505617        -0.099771
 C         2.968721         1.859851        -1.254586
 C         2.563253         0.433583        -1.091403
 H        -0.445162         0.096551         1.079148
 H        -0.059899         1.653341         0.161352
 H        -0.626197         0.022683        -0.789055
 H         3.973740        -0.977989         0.317351
 H         2.069186         0.012747         2.080339
 H         2.645423         2.508312         1.907616
 H         4.218554         1.729425         1.304206
 H         2.420361         2.297614        -2.052702
 H         4.058949         1.827573        -1.654892
 H         2.495373        -0.057152        -2.043786
