19
Iteration:  2088
 C        -0.122963         0.365705         0.069292
 C         1.349254         0.168231        -0.086330
 O         1.882299        -1.296251         0.033019
 C         3.127254        -0.483396         0.087205
 C         2.448015         0.492015         1.122217
 C         2.956295         1.901259         1.139957
 O         2.821170         2.600557        -0.097213
 C         3.068157         1.817551        -1.241119
 C         2.615423         0.411640        -1.074554
 H        -0.414252        -0.088146         1.050734
 H        -0.361671         1.444709         0.174021
 H        -0.736159        -0.237283        -0.577507
 H         4.012814        -0.978512         0.203859
 H         2.133189         0.114984         2.120545
 H         2.696993         2.687809         1.936863
 H         3.990291         1.737917         1.489492
 H         2.746054         2.321621        -2.203510
 H         4.152412         1.781594        -1.402705
 H         2.474356        -0.176693        -2.063712
