19
Iteration:  4896
 C        -0.020643         0.468610         0.043667
 C         1.419446         0.173023         0.002840
 O         1.817830        -1.297175         0.195652
 C         3.078275        -0.583113         0.103599
 C         2.624489         0.501898         1.082683
 C         2.921191         1.931853         1.055184
 O         2.704595         2.592613        -0.175088
 C         3.127509         1.808672        -1.254684
 C         2.544834         0.333720        -1.078615
 H        -0.448956         0.253249         1.090152
 H        -0.159133         1.512252        -0.235212
 H        -0.530040        -0.324369        -0.658443
 H         4.028012        -1.076150         0.069777
 H         2.328200         0.137526         2.137532
 H         2.215723         2.332875         1.791006
 H         3.944103         2.458441         1.454884
 H         2.503493         2.277979        -2.099909
 H         4.242990         1.840026        -1.352316
 H         2.420716        -0.206166        -2.076075
