19
Iteration:  4479charge 0 multiplicity 1
 C         0.104706         0.429483        -0.089646
 C         1.485129         0.113385         0.055405
 O         1.753926        -1.316003         0.180098
 C         3.116821        -0.516828         0.113392
 C         2.520137         0.483485         1.111578
 C         3.090169         1.957054         1.088267
 O         2.680763         2.648346        -0.120240
 C         2.967195         1.785350        -1.269641
 C         2.517739         0.326682        -1.071267
 H        -0.343966         0.132879         0.930337
 H        -0.156482         1.412006        -0.416717
 H        -0.500648        -0.073242        -0.941819
 H         4.070773        -1.026136         0.232187
 H         2.283478         0.159431         2.149884
 H         2.684187         2.595795         2.016111
 H         4.175415         2.068587         1.207619
 H         2.397539         2.340996        -2.081448
 H         3.988604         1.853566        -1.463193
 H         2.066287        -0.176133        -1.937641
