19
Iteration:  2189charge 0 multiplicity 1
 C         0.037764         0.500143        -0.058987
 C         1.422994         0.126346         0.000549
 O         1.866653        -1.384751         0.074234
 C         3.120986        -0.593387         0.217365
 C         2.440989         0.460335         1.154588
 C         3.007024         1.840974         1.094973
 O         2.775775         2.617452        -0.028054
 C         2.857349         1.926702        -1.406706
 C         2.597674         0.423129        -1.056942
 H        -0.470912         0.266518         0.793091
 H         0.038372         1.626445         0.159011
 H        -0.291932         0.091265        -0.965354
 H         4.050392        -1.115803         0.345722
 H         2.245956         0.121840         2.159694
 H         2.424323         2.469901         1.828789
 H         4.164748         1.829256         1.338073
 H         2.308538         2.561114        -2.092891
 H         3.941035         1.925334        -1.681573
 H         2.735934        -0.165173        -2.052617
