19
Iteration:  3908
 C        -0.105104         0.397105        -0.101331
 C         1.361563         0.237065         0.044461
 O         1.878813        -1.323427         0.166506
 C         3.089019        -0.526033         0.089158
 C         2.582841         0.518558         1.159590
 C         3.066566         1.949645         1.109207
 O         2.753952         2.603651        -0.156891
 C         3.038697         1.763976        -1.257400
 C         2.532761         0.346033        -1.010843
 H        -0.500085         0.149406         0.870709
 H        -0.504812         1.444273        -0.192713
 H        -0.643944        -0.247003        -0.738687
 H         4.059773        -0.979437        -0.031226
 H         2.225635         0.190877         2.106583
 H         2.535241         2.577899         1.790026
 H         4.181971         1.915163         1.261053
 H         2.399474         2.193312        -2.040932
 H         4.124155         1.783581        -1.737863
 H         2.450516        -0.196814        -1.923222
