19
Iteration:  2653
 C        -0.101347         0.420511         0.055608
 C         1.376975         0.114345         0.010261
 O         1.898117        -1.335956         0.119733
 C         3.071030        -0.548414         0.028969
 C         2.510501         0.464514         1.060559
 C         2.968020         1.982430         1.162264
 O         2.747962         2.667116        -0.141615
 C         3.141685         1.787392        -1.222992
 C         2.518422         0.413092        -1.102970
 H        -0.445274        -0.120007         0.982867
 H        -0.451502         1.421389         0.196465
 H        -0.598595        -0.085144        -0.778950
 H         3.958590        -1.028921        -0.031618
 H         2.533604         0.048625         2.095390
 H         2.373123         2.373616         2.012505
 H         4.063342         2.059316         1.445507
 H         2.935586         2.243916        -2.203223
 H         4.202646         1.827632        -1.325153
 H         2.510941        -0.092355        -2.039831
