19
Iteration:  1506charge 0 multiplicity 1
 C         0.033207         0.408371        -0.138621
 C         1.466919         0.101791         0.033006
 O         1.804270        -1.336157         0.102822
 C         3.083819        -0.522432         0.059325
 C         2.602586         0.471788         1.146754
 C         3.112211         1.960673         1.142437
 O         2.722066         2.657479        -0.057144
 C         2.920997         1.808411        -1.164096
 C         2.423999         0.430637        -1.070809
 H        -0.714206        -0.215222         0.476071
 H        -0.052001         1.379641         0.048170
 H        -0.159365         0.290362        -1.258103
 H         3.986025        -1.165642         0.135427
 H         2.266161        -0.123668         2.042633
 H         2.747834         2.542457         1.917739
 H         4.278070         1.905313         1.298359
 H         2.583709         2.316419        -2.046309
 H         4.007102         1.727181        -1.573052
 H         2.151727        -0.154925        -1.953570
