19
Iteration:  2285
 C        -0.013926         0.324797         0.067464
 C         1.447201         0.104319        -0.053177
 O         1.841459        -1.284435         0.031828
 C         3.089092        -0.517323         0.060626
 C         2.412992         0.512636         1.076982
 C         2.980563         1.984346         1.202234
 O         2.825118         2.647968        -0.069052
 C         3.095168         1.750228        -1.260982
 C         2.511735         0.409868        -1.093565
 H        -0.334340         0.269903         1.194403
 H        -0.030801         1.432258         0.016479
 H        -0.664834        -0.195205        -0.669201
 H         4.065120        -0.979960         0.023377
 H         2.088523         0.051725         2.029469
 H         2.106750         2.558919         1.773437
 H         3.934350         2.084787         1.611622
 H         2.627283         2.275363        -2.241189
 H         4.168036         1.711854        -1.278511
 H         2.349698        -0.300918        -1.956338
