19
Iteration:  4823charge 0 multiplicity 1
 C        -0.012031         0.404584        -0.071035
 C         1.435179         0.196339         0.034850
 O         1.851939        -1.277858         0.212554
 C         3.096340        -0.539675         0.168298
 C         2.472434         0.493875         1.114721
 C         3.039597         1.877565         1.022014
 O         2.751872         2.654787        -0.127335
 C         2.942214         1.784932        -1.308843
 C         2.593747         0.367008        -1.055289
 H        -0.539624         0.167517         0.828806
 H        -0.151243         1.512596        -0.146798
 H        -0.341181        -0.278144        -0.826037
 H         3.947131        -1.269565         0.191329
 H         2.218319         0.057768         2.057853
 H         2.786965         2.632761         1.900084
 H         4.207945         1.762036         1.323078
 H         2.129094         2.195699        -1.882432
 H         3.990721         1.967305        -1.773985
 H         2.525866        -0.239654        -1.981477
