19
Iteration:  1525charge 0 multiplicity 1
 C        -0.128467         0.478946        -0.148253
 C         1.354520         0.154023         0.105047
 O         1.870895        -1.293267         0.128758
 C         3.149092        -0.565364         0.030482
 C         2.595698         0.470869         1.090877
 C         3.065950         1.881312         1.069610
 O         2.678766         2.624259        -0.028343
 C         3.052609         1.862653        -1.213244
 C         2.560498         0.354964        -1.006723
 H        -0.734783        -0.130248         0.564995
 H        -0.498809         1.546050         0.021572
 H        -0.350341         0.028886        -1.116481
 H         4.023402        -1.091048        -0.204231
 H         2.639498         0.001188         2.122046
 H         2.664767         2.344660         2.031178
 H         4.176765         1.823616         1.367018
 H         2.339076         2.322948        -2.004856
 H         4.115590         1.930983        -1.663620
 H         2.276220        -0.168392        -1.943435
