19
Iteration:  3075charge 0 multiplicity 1
 C         0.014484         0.379654        -0.000737
 C         1.426286         0.154955         0.040284
 O         1.817556        -1.289362         0.133406
 C         3.095679        -0.503070         0.167896
 C         2.536759         0.511538         1.089163
 C         3.023195         1.951798         1.047344
 O         2.728377         2.577707        -0.131922
 C         3.024136         1.830974        -1.300661
 C         2.465479         0.395166        -1.031960
 H        -0.444050        -0.359422         0.715824
 H        -0.302653         1.335067         0.213640
 H        -0.325934         0.075233        -1.039567
 H         4.076025        -1.166091         0.159309
 H         2.255623         0.220200         2.111674
 H         2.655905         2.352611         1.942801
 H         4.201015         1.841881         1.272132
 H         2.685131         2.379427        -2.187945
 H         4.126779         1.803266        -1.453821
 H         2.543950        -0.192930        -1.984883
