19
Iteration:  1779
 C        -0.018990         0.429300         0.103598
 C         1.466651         0.156540         0.022051
 O         1.835685        -1.294340         0.069904
 C         3.100532        -0.543609         0.004565
 C         2.389581         0.487118         1.032140
 C         2.881707         1.899869         1.136896
 O         2.766331         2.627016        -0.103537
 C         3.158400         1.822286        -1.235711
 C         2.601636         0.385833        -1.096451
 H        -0.211621         0.231090         1.223708
 H        -0.218727         1.342828        -0.169545
 H        -0.716849        -0.348732        -0.398937
 H         4.033099        -0.986763         0.230398
 H         2.199071        -0.085220         1.978674
 H         2.454527         2.530808         1.993663
 H         3.994953         1.875950         1.425873
 H         2.468614         2.264505        -1.996794
 H         4.258553         1.913944        -1.413849
 H         2.397408        -0.155734        -2.039436
