19
Iteration:  3568charge 0 multiplicity 1
 C        -0.087624         0.393887         0.006436
 C         1.408652         0.182938        -0.007160
 O         1.855308        -1.301084         0.110221
 C         3.117731        -0.504975         0.178665
 C         2.520507         0.546404         1.165705
 C         3.053374         1.906390         1.098913
 O         2.797219         2.602970        -0.101574
 C         2.942125         1.759103        -1.362823
 C         2.590134         0.353962        -1.101820
 H        -0.588798         0.268458         0.962523
 H        -0.189114         1.476402        -0.253430
 H        -0.579766        -0.232964        -0.727632
 H         4.006192        -1.029006         0.212800
 H         2.311495         0.339582         2.246063
 H         2.494258         2.517784         1.906519
 H         4.101779         2.029349         1.535360
 H         2.241878         2.230872        -2.088906
 H         3.941486         1.805452        -1.780326
 H         2.530370        -0.338914        -1.979365
