19
Iteration:  2136
 C        -0.014110         0.449124        -0.073796
 C         1.376238         0.144835        -0.006786
 O         1.879139        -1.296401         0.188848
 C         3.094902        -0.500660         0.002177
 C         2.573231         0.433209         1.100690
 C         2.972337         1.889315         1.123280
 O         2.689991         2.573681        -0.095859
 C         3.136119         1.830280        -1.185889
 C         2.447959         0.431688        -1.066257
 H        -0.474483         0.091641         0.851783
 H        -0.153236         1.646840        -0.220649
 H        -0.455577        -0.218241        -0.866486
 H         4.107516        -1.119498         0.084898
 H         2.418342        -0.119413         2.032055
 H         2.490353         2.451252         1.851903
 H         3.974404         2.074505         1.458221
 H         2.782326         2.290771        -2.056658
 H         4.237452         1.817907        -1.361903
 H         2.168644         0.064203        -2.071498
