19
Iteration:  1206charge 0 multiplicity 1
 C        -0.020894         0.444395        -0.092902
 C         1.416440         0.127760        -0.003021
 O         1.832435        -1.298828         0.099682
 C         3.110447        -0.501311         0.018694
 C         2.640237         0.491637         1.074513
 C         3.015718         1.971888         1.201543
 O         2.784294         2.583977        -0.012473
 C         3.000499         1.800276        -1.180712
 C         2.437082         0.347802        -1.109817
 H        -0.428238         0.093162         0.801954
 H        -0.330995         1.624086        -0.282718
 H        -0.417151        -0.121129        -0.888656
 H         4.000698        -1.071124        -0.045118
 H         2.369993        -0.076292         1.973262
 H         2.310569         2.419846         1.861492
 H         4.062434         1.930407         1.659711
 H         2.552724         2.364809        -1.988851
 H         3.981673         1.724278        -1.458851
 H         2.085324        -0.088472        -2.016092
