19
Iteration:  2864charge 0 multiplicity 1
 C        -0.060391         0.404129         0.045931
 C         1.371153         0.137488         0.047413
 O         1.871192        -1.384005         0.134423
 C         3.114445        -0.483000         0.057794
 C         2.523891         0.493201         1.108766
 C         2.937555         1.910244         1.053919
 O         2.855814         2.664792        -0.117115
 C         2.997321         1.787811        -1.233723
 C         2.533670         0.386407        -1.115408
 H        -0.528930        -0.100573         0.883644
 H        -0.065196         1.577010         0.285953
 H        -0.497996         0.107078        -0.906328
 H         4.122881        -0.924530         0.119495
 H         2.312779         0.190223         2.168516
 H         2.200803         2.386943         1.732509
 H         3.927176         2.136858         1.567299
 H         2.574374         2.405046        -2.129683
 H         4.001540         1.917694        -1.600530
 H         2.556472        -0.276797        -2.067183
