19
Iteration:  4710
 C         0.016327         0.445621         0.068739
 C         1.389652         0.092019         0.057307
 O         1.851811        -1.267211         0.117686
 C         3.119111        -0.446997         0.123773
 C         2.440983         0.464083         1.145602
 C         2.944085         1.900440         1.111796
 O         2.754561         2.597011        -0.223580
 C         3.117381         1.838733        -1.312972
 C         2.527730         0.320928        -1.096808
 H        -0.317048         0.099787         1.095154
 H         0.014049         1.462164        -0.104917
 H        -0.736456        -0.042707        -0.605229
 H         3.965400        -1.060933         0.284894
 H         2.148153        -0.022320         2.124060
 H         2.340928         2.560758         1.878399
 H         4.116506         2.092072         1.426011
 H         2.582885         2.293996        -2.202264
 H         4.264312         1.704566        -1.389715
 H         2.500107        -0.190809        -2.078860
