19
Iteration:  1843charge 0 multiplicity 1
 C         0.002670         0.350476        -0.165450
 C         1.404991         0.168465         0.015012
 O         1.849101        -1.297435         0.179031
 C         3.082745        -0.527844         0.087643
 C         2.545097         0.476828         1.119611
 C         3.105674         1.890663         1.128797
 O         2.811394         2.636681        -0.039675
 C         2.962865         1.876537        -1.249604
 C         2.413637         0.381938        -1.077366
 H        -0.483146        -0.214951         0.635207
 H        -0.298055         1.404501        -0.130950
 H        -0.421513         0.036092        -1.154916
 H         3.974239        -0.995162         0.186670
 H         2.287234         0.084265         2.156044
 H         2.599971         2.491397         1.982912
 H         4.175951         1.772304         1.335728
 H         2.382812         2.415072        -2.075503
 H         4.029399         1.807208        -1.520329
 H         2.220760        -0.080744        -2.034766
