19
Iteration:  4782charge 0 multiplicity 1
 C        -0.119368         0.375635        -0.026607
 C         1.353282         0.127083         0.077791
 O         1.959527        -1.297558         0.207970
 C         3.057885        -0.475035         0.054605
 C         2.472915         0.536521         1.106939
 C         3.007307         1.959596         1.116775
 O         2.866414         2.612468        -0.171363
 C         3.022488         1.739620        -1.280886
 C         2.486365         0.389081        -1.065879
 H        -0.727319        -0.245303         0.571612
 H        -0.434503         1.473841         0.034208
 H        -0.526352         0.221953        -1.014573
 H         4.094374        -0.905998         0.199269
 H         2.542781         0.057069         2.063869
 H         2.607302         2.599855         1.836384
 H         4.102078         1.895240         1.366252
 H         2.562579         2.179550        -2.123834
 H         4.133624         1.534405        -1.403251
 H         2.308673        -0.126607        -1.997607
