19
Iteration:  4468charge 0 multiplicity 1
 C         0.017100         0.472771        -0.127980
 C         1.455887         0.161458         0.059697
 O         1.833854        -1.332931         0.201593
 C         3.110794        -0.552853         0.072309
 C         2.589161         0.510490         1.117023
 C         3.067571         1.996445         1.111565
 O         2.674485         2.614240        -0.132709
 C         2.975715         1.818772        -1.212713
 C         2.452982         0.302617        -1.044875
 H        -0.662658         0.229368         0.779606
 H         0.020151         1.544793        -0.211067
 H        -0.247475        -0.302626        -0.970154
 H         3.915778        -1.283608         0.053710
 H         2.339655        -0.040820         2.053777
 H         2.731869         2.755213         1.959215
 H         4.110036         1.838980         1.064659
 H         2.437503         2.260143        -2.114855
 H         3.991083         1.797030        -1.511443
 H         2.441270        -0.262709        -1.991583
