19
Iteration:   277
 C        -0.088401         0.406726         0.000118
 C         1.452784         0.102875         0.023148
 O         1.775107        -1.258646         0.080432
 C         3.103473        -0.583591         0.054325
 C         2.490210         0.452317         1.169931
 C         3.036753         1.870382         1.115075
 O         2.804281         2.693527        -0.085768
 C         3.019888         1.926407        -1.277059
 C         2.632446         0.346748        -1.056413
 H        -0.478445        -0.177101         0.869224
 H        -0.182822         1.420151         0.197041
 H        -0.513838        -0.012082        -0.972301
 H         3.935856        -1.400831         0.079213
 H         2.074117         0.150733         2.157085
 H         2.655519         2.420324         2.005793
 H         4.103718         1.646872         1.269362
 H         2.161757         2.178558        -2.034662
 H         3.938833         2.109446        -1.820202
 H         2.517557         0.000267        -2.105202
