19
Iteration:  4917
 C        -0.029469         0.472922         0.104395
 C         1.444915         0.107207         0.057443
 O         1.831835        -1.309636         0.079790
 C         3.171105        -0.490124         0.055164
 C         2.445361         0.516309         1.082837
 C         2.882012         2.062709         1.136238
 O         2.767746         2.630565        -0.187488
 C         3.094523         1.680918        -1.270660
 C         2.520741         0.308206        -1.093909
 H        -0.455692         0.011721         1.072591
 H        -0.152405         1.505011         0.221562
 H        -0.508218        -0.129184        -0.718144
 H         4.016478        -1.084535         0.332431
 H         2.292659         0.047802         2.131245
 H         2.603023         2.641176         1.916752
 H         4.065634         2.102961         1.361580
 H         2.594520         2.055838        -2.231940
 H         4.260216         1.577538        -1.241995
 H         2.581177        -0.207165        -2.078950
