19
Iteration:  4754
 C        -0.032119         0.350737         0.086023
 C         1.389843         0.065746        -0.009135
 O         1.820897        -1.312285         0.164332
 C         3.092794        -0.467496         0.088168
 C         2.494180         0.541525         1.104376
 C         2.916912         2.008230         1.137711
 O         2.865797         2.669915        -0.173184
 C         3.112029         1.729447        -1.325161
 C         2.499449         0.376521        -1.102696
 H        -0.661553        -0.279886         0.786015
 H        -0.234325         1.371747         0.287504
 H        -0.664848         0.141472        -0.844295
 H         4.024154        -0.998967         0.121922
 H         2.496843         0.022357         2.110739
 H         2.319789         2.660445         1.912263
 H         4.060380         2.131141         1.553006
 H         2.704514         2.274394        -2.260617
 H         4.196777         1.482509        -1.327985
 H         2.341401        -0.229832        -2.043487
