19
Iteration:  1625
 C        -0.008942         0.405020        -0.024684
 C         1.384318         0.124144        -0.043576
 O         1.907727        -1.281163         0.083486
 C         3.110552        -0.482629        -0.044076
 C         2.536973         0.523184         1.131814
 C         2.945875         1.967390         1.217650
 O         2.852419         2.615639        -0.034831
 C         3.037476         1.775799        -1.205559
 C         2.393039         0.368089        -1.105007
 H        -0.386135        -0.012933         1.039684
 H        -0.350168         1.399258        -0.080708
 H        -0.586010        -0.175405        -0.895120
 H         3.889653        -1.168646        -0.142763
 H         2.300402        -0.023471         2.115066
 H         2.280595         2.423422         1.994832
 H         3.990399         1.966772         1.504845
 H         2.869887         2.269137        -2.191453
 H         4.052337         1.608137        -1.332170
 H         2.235621        -0.252401        -2.001736
