19
Iteration:  1196
 C        -0.080042         0.441231        -0.150865
 C         1.393217         0.114388         0.005206
 O         1.861684        -1.203643         0.090501
 C         3.121139        -0.531351        -0.003451
 C         2.624819         0.493233         1.082949
 C         3.063391         1.929622         1.229487
 O         2.783221         2.584655        -0.003062
 C         2.944644         1.752095        -1.192486
 C         2.461551         0.323122        -1.088573
 H        -0.542764         0.040608         0.678342
 H        -0.313558         1.595059        -0.144303
 H        -0.534210        -0.012669        -0.952753
 H         3.995875        -1.188698         0.110765
 H         2.748731         0.036921         2.061752
 H         2.496424         2.432796         1.915975
 H         4.065508         2.255409         1.532088
 H         2.370924         2.322899        -1.901276
 H         4.002437         1.806453        -1.354798
 H         2.294190        -0.103023        -2.023115
