19
Iteration:  2917charge 0 multiplicity 1
 C        -0.126310         0.347042        -0.017259
 C         1.379474         0.110571         0.066122
 O         1.870554        -1.302349         0.120172
 C         3.142927        -0.479965         0.072480
 C         2.472184         0.541937         1.088061
 C         3.043882         1.917930         1.130002
 O         2.857089         2.606985        -0.108687
 C         2.988314         1.782299        -1.306096
 C         2.522951         0.416519        -1.025633
 H        -0.644079        -0.092324         0.762056
 H        -0.269930         1.455778        -0.107218
 H        -0.253810        -0.095126        -0.935796
 H         4.069282        -0.928641         0.318683
 H         2.480881         0.063458         2.110807
 H         2.582523         2.639419         1.888013
 H         4.083416         1.761285         1.236619
 H         2.152895         2.372042        -1.910628
 H         3.971346         2.011549        -1.734357
 H         2.352424        -0.147705        -1.994243
