19
Iteration:   987charge 0 multiplicity 1
 C         0.014321         0.423767        -0.182368
 C         1.402719         0.107862         0.043051
 O         1.873988        -1.311660         0.198975
 C         3.107209        -0.455304         0.017584
 C         2.514385         0.471752         1.122395
 C         3.107348         1.931882         1.147413
 O         2.748466         2.609664        -0.016268
 C         3.040937         1.857543        -1.187590
 C         2.294364         0.367149        -1.097201
 H        -0.608146        -0.133923         0.418531
 H        -0.200504         1.580964        -0.119640
 H        -0.195580         0.089509        -1.166994
 H         4.059022        -1.184749         0.019317
 H         2.443819        -0.127492         2.091764
 H         2.971661         2.523428         2.080705
 H         4.211092         1.709776         1.109661
 H         2.535965         2.247832        -2.189983
 H         4.076977         1.756374        -1.516495
 H         2.210852        -0.130794        -2.090224
