19
Iteration:  1387charge 0 multiplicity 1
 C        -0.017451         0.403752        -0.022266
 C         1.450420         0.116173         0.013863
 O         1.827041        -1.284775         0.026190
 C         3.145018        -0.471882         0.044138
 C         2.460703         0.495961         1.126366
 C         3.025124         1.919097         1.156389
 O         2.738647         2.593395        -0.086841
 C         3.073690         1.813276        -1.223915
 C         2.466832         0.386744        -1.037648
 H        -0.341608         0.174348         1.115992
 H        -0.127161         1.465364        -0.172858
 H        -0.654884        -0.283621        -0.773011
 H         4.120355        -1.186965        -0.062365
 H         2.198747         0.012591         2.094495
 H         2.566917         2.560521         1.967767
 H         4.142254         1.946577         1.341467
 H         2.779577         2.404176        -2.142330
 H         4.143677         1.612662        -1.166747
 H         2.112067        -0.048349        -2.010305
