19
Iteration:  4296charge 0 multiplicity 1
 C        -0.086861         0.440715        -0.040923
 C         1.426751         0.122281         0.014151
 O         1.867820        -1.266274         0.114698
 C         3.172988        -0.461691         0.137121
 C         2.461551         0.546259         1.111422
 C         3.059453         1.927860         1.111571
 O         2.741239         2.570336        -0.088504
 C         2.942365         1.739689        -1.317010
 C         2.582909         0.346799        -1.078015
 H        -0.451565         0.222667         0.984639
 H        -0.203795         1.560048        -0.121804
 H        -0.528116        -0.069022        -0.920412
 H         3.967347        -1.159759         0.332491
 H         2.154672         0.318749         2.185351
 H         2.944183         2.507214         1.975056
 H         4.201235         1.788252         1.303592
 H         2.204124         2.060299        -2.008697
 H         4.024021         1.796017        -1.511030
 H         2.477724        -0.280403        -1.992251
