19
Iteration:  4647
 C         0.047365         0.429954        -0.100153
 C         1.439047         0.092601         0.133705
 O         1.773997        -1.269404         0.180643
 C         3.124821        -0.435389         0.079369
 C         2.497877         0.496768         1.128781
 C         3.081579         1.910379         1.118809
 O         2.684871         2.584907        -0.159904
 C         2.955515         1.783811        -1.269391
 C         2.569603         0.341379        -1.078701
 H        -0.440959         0.284528         0.905234
 H        -0.066481         1.624295        -0.356062
 H        -0.299836        -0.017284        -1.072491
 H         3.925755        -1.153982         0.273791
 H         2.616957        -0.006580         2.091659
 H         2.608440         2.594799         1.972081
 H         4.227613         1.971621         1.066915
 H         2.171999         2.154767        -1.908356
 H         4.013973         1.945103        -1.559782
 H         2.549769        -0.329488        -1.982461
