19
Iteration:  3926
 C        -0.065106         0.353464        -0.095063
 C         1.414043         0.137960         0.129014
 O         1.862149        -1.234207         0.176672
 C         3.108992        -0.445204         0.135762
 C         2.498074         0.547069         1.097807
 C         3.118210         1.937467         1.097807
 O         2.794554         2.568977        -0.104795
 C         2.964081         1.751042        -1.304510
 C         2.434568         0.379393        -1.100340
 H        -0.763771         0.063170         0.703190
 H        -0.313744         1.479403        -0.352165
 H        -0.145249        -0.300072        -0.996047
 H         4.100731        -0.996681         0.314266
 H         2.530179        -0.022441         2.020062
 H         2.585406         2.523734         1.867000
 H         4.206438         1.867767         1.268953
 H         2.653062         2.286524        -2.228593
 H         4.061510         1.582488        -1.373667
 H         2.147309        -0.218685        -1.985251
