19
Iteration:  1644
 C        -0.167488         0.364159        -0.011010
 C         1.371722         0.104873         0.052063
 O         1.872373        -1.348773         0.121430
 C         3.110780        -0.464884         0.049727
 C         2.460874         0.456911         1.009962
 C         3.086172         1.899764         1.113431
 O         2.808961         2.622398        -0.072047
 C         3.074240         1.868055        -1.196962
 C         2.546282         0.448157        -1.084919
 H        -0.861129         0.049592         0.767300
 H        -0.363166         1.514326         0.048342
 H        -0.532024        -0.009802        -0.968782
 H         4.135747        -0.841705         0.221543
 H         2.462228        -0.110196         1.961277
 H         2.529450         2.455454         1.992847
 H         4.093726         1.881156         1.560026
 H         2.494245         2.258218        -2.118485
 H         4.206818         1.929219        -1.495254
 H         2.389179        -0.079265        -2.038163
