19
Iteration:  3874charge 0 multiplicity 1
 C         0.001848         0.509484         0.045688
 C         1.497317         0.126614        -0.005590
 O         1.845222        -1.352181         0.127966
 C         3.139300        -0.482728         0.181936
 C         2.454407         0.509526         1.063774
 C         2.924174         1.910242         1.061027
 O         2.740068         2.608767        -0.152951
 C         3.065194         1.791384        -1.294325
 C         2.480181         0.313496        -1.056294
 H        -0.134857         0.244389         1.077363
 H        -0.076736         1.682079         0.042505
 H        -0.597119        -0.005971        -0.620791
 H         4.191950        -0.824712         0.117613
 H         2.030647         0.152259         1.956298
 H         2.402823         2.446905         1.814823
 H         4.065599         1.926024         1.452285
 H         2.548083         2.167095        -2.190875
 H         4.241036         1.772805        -1.368253
 H         2.456822        -0.255134        -1.931579
