19
Iteration:  2857
 C        -0.002306         0.413788         0.107496
 C         1.412914         0.123908        -0.048569
 O         1.859709        -1.339000         0.112098
 C         3.162321        -0.524288         0.103794
 C         2.476044         0.437978         1.107889
 C         2.903559         1.934851         1.108177
 O         2.839322         2.663506        -0.145649
 C         3.024700         1.825788        -1.304771
 C         2.475916         0.399904        -1.061565
 H        -0.548781        -0.156634         0.933896
 H        -0.161697         1.474678         0.164155
 H        -0.609394         0.148649        -0.842507
 H         4.225340        -0.936027         0.226831
 H         2.262438         0.140821         2.121566
 H         2.356973         2.432588         1.907482
 H         3.977784         2.092558         1.448790
 H         2.537946         2.188466        -2.150485
 H         4.167732         1.718630        -1.497751
 H         2.416555        -0.088598        -2.020061
