19
Iteration:  2426
 C        -0.101246         0.406111         0.000098
 C         1.364357         0.048948         0.007628
 O         1.836150        -1.386124         0.053978
 C         3.124720        -0.483528         0.143024
 C         2.493246         0.506191         1.058802
 C         3.032708         1.926324         1.151255
 O         2.798508         2.624210        -0.089679
 C         3.051617         1.931989        -1.291319
 C         2.579144         0.379706        -1.023836
 H        -0.575169         0.243888         1.016486
 H        -0.314861         1.485255        -0.120022
 H        -0.542361        -0.152493        -0.828648
 H         4.120013        -1.012200         0.103710
 H         2.329957         0.106590         2.074457
 H         2.343446         2.381581         1.804721
 H         4.114546         1.798020         1.509704
 H         2.336893         2.465203        -1.912804
 H         4.158852         1.927848        -1.707862
 H         2.586294        -0.093825        -2.009334
