19
Iteration:  1851charge 0 multiplicity 1
 C        -0.058235         0.373808        -0.158084
 C         1.422179         0.121268        -0.007599
 O         1.819441        -1.317635         0.144079
 C         3.105977        -0.480911         0.121715
 C         2.524785         0.506752         1.065311
 C         3.141170         1.914100         1.173586
 O         2.799482         2.635803        -0.045307
 C         2.928959         1.814266        -1.238504
 C         2.508761         0.386608        -1.072870
 H        -0.568998        -0.201161         0.575500
 H        -0.349610         1.589024        -0.004088
 H        -0.491413        -0.000864        -1.105841
 H         4.086347        -1.117416         0.286272
 H         2.507154         0.117312         2.085375
 H         2.699334         2.461796         2.012676
 H         4.186393         1.882168         1.454967
 H         2.207694         2.294769        -1.911181
 H         4.035078         1.803830        -1.650421
 H         2.149223         0.000738        -2.015821
