19
Iteration:  4420
 C         0.017149         0.451528         0.022015
 C         1.474072         0.128680         0.060053
 O         1.885281        -1.273373         0.119282
 C         3.037630        -0.511750         0.094871
 C         2.433688         0.530987         1.113521
 C         3.007657         1.957153         1.103084
 O         2.729561         2.596021        -0.146566
 C         3.004371         1.739777        -1.275502
 C         2.596128         0.320122        -1.086809
 H        -0.463392         0.148010         0.930842
 H         0.042288         1.568901         0.179398
 H        -0.443048        -0.051652        -0.759749
 H         3.987489        -1.169075         0.074152
 H         2.104184         0.243145         2.091142
 H         2.426994         2.534005         1.823669
 H         4.142704         1.917116         1.342633
 H         2.478928         2.240944        -2.142587
 H         4.010282         1.716070        -1.563262
 H         2.274115        -0.157262        -2.007622
