19
Iteration:  1296charge 0 multiplicity 1
 C        -0.090558         0.442826        -0.069677
 C         1.385437         0.074905         0.086781
 O         1.828252        -1.347219         0.142413
 C         3.056819        -0.469139         0.001705
 C         2.594557         0.409914         1.072867
 C         3.025760         1.891715         1.159991
 O         2.758135         2.654410        -0.105633
 C         3.081326         1.845708        -1.211791
 C         2.540760         0.436546        -1.061119
 H        -0.689239        -0.100852         0.739572
 H        -0.354139         1.607859        -0.009074
 H        -0.482609         0.149160        -1.094943
 H         3.986575        -1.164308        -0.027708
 H         2.572415        -0.050822         2.076641
 H         2.370481         2.349676         1.838399
 H         4.130425         2.162686         1.445983
 H         2.725536         2.349869        -2.122322
 H         4.168346         1.860730        -1.324735
 H         2.305539        -0.118853        -1.944813
