19
Iteration:  4938
 C        -0.123299         0.440380         0.072008
 C         1.417128         0.164789        -0.002019
 O         1.976945        -1.351024         0.138196
 C         3.075058        -0.442469         0.138072
 C         2.393154         0.513538         1.083731
 C         3.003905         1.905847         1.044524
 O         2.800232         2.567882        -0.191533
 C         3.104847         1.792297        -1.326793
 C         2.488530         0.390222        -1.014149
 H        -0.605203        -0.050809         0.978471
 H        -0.059579         1.378031         0.480189
 H        -0.748513         0.221438        -0.820132
 H         4.045217        -0.925626         0.116835
 H         2.295503         0.293135         2.202912
 H         2.379826         2.433036         1.711260
 H         3.959143         2.021278         1.598931
 H         2.657860         2.162465        -2.308039
 H         4.275225         1.611928        -1.239674
 H         2.303006        -0.240279        -1.911277
