19
Iteration:  4473charge 0 multiplicity 1
 C         0.068913         0.440742        -0.116084
 C         1.493280         0.147825         0.070952
 O         1.784702        -1.336364         0.190285
 C         3.106904        -0.515003         0.093489
 C         2.562602         0.479960         1.102213
 C         3.058896         1.992095         1.125772
 O         2.676322         2.632745        -0.142559
 C         2.958764         1.810671        -1.217354
 C         2.464947         0.297510        -1.050944
 H        -0.428626         0.112424         0.772877
 H        -0.020067         1.540493        -0.375460
 H        -0.394889        -0.164537        -0.872076
 H         3.958413        -1.221371         0.162925
 H         2.251463         0.046106         2.056593
 H         2.838004         2.649485         1.870668
 H         4.229309         1.991808         1.126253
 H         2.545949         2.358766        -2.037378
 H         4.076882         1.888174        -1.661600
 H         2.234457        -0.238706        -1.988503
