19
Iteration:  2558
 C        -0.011584         0.434292        -0.119866
 C         1.439198         0.104582         0.031884
 O         1.861643        -1.324220         0.065477
 C         3.106863        -0.548779         0.090312
 C         2.591198         0.528570         1.129585
 C         3.098744         1.977004         1.122057
 O         2.688854         2.653324        -0.022670
 C         2.958345         1.803430        -1.222875
 C         2.443097         0.331914        -1.033974
 H        -0.670081         0.012643         0.653255
 H        -0.273445         1.536515        -0.262183
 H        -0.327852        -0.102247        -1.023199
 H         4.059095        -1.300582         0.025832
 H         2.412228         0.109352         2.107588
 H         2.751370         2.598300         1.909233
 H         4.198089         1.882566         1.319175
 H         2.613018         2.377726        -2.020091
 H         4.007371         1.746939        -1.468716
 H         2.154766        -0.146450        -1.978404
