19
Iteration:  2763charge 0 multiplicity 1
 C        -0.107080         0.466348        -0.083765
 C         1.404853         0.116526         0.061835
 O         1.930024        -1.260128         0.138462
 C         3.113770        -0.498367         0.093189
 C         2.616716         0.474180         1.149506
 C         3.009947         1.879554         1.103135
 O         2.736209         2.625435        -0.087383
 C         2.935473         1.766280        -1.279135
 C         2.539270         0.338460        -1.073700
 H        -0.791314         0.298736         0.732678
 H        -0.015075         1.519344        -0.369935
 H        -0.589619        -0.025205        -0.905003
 H         4.026937        -0.914216        -0.041033
 H         2.574589        -0.069911         2.118262
 H         2.516072         2.442873         1.941387
 H         4.067448         1.997633         1.484568
 H         2.260009         2.379664        -2.035741
 H         4.036555         1.861164        -1.562151
 H         2.347321        -0.301009        -1.921318
