19
Iteration:  3780
 C        -0.112385         0.391055        -0.032383
 C         1.335905         0.103228        -0.002628
 O         1.903730        -1.227632         0.135300
 C         3.117486        -0.483313         0.172102
 C         2.481110         0.477380         1.149856
 C         3.099686         1.940640         1.025745
 O         2.770932         2.608558        -0.121117
 C         2.981930         1.724331        -1.309307
 C         2.578211         0.400903        -1.032808
 H        -0.595971         0.091761         0.937531
 H        -0.347909         1.404032        -0.000901
 H        -0.609361        -0.015883        -0.960642
 H         4.102901        -0.826976         0.198154
 H         2.166087         0.192346         2.232167
 H         2.661663         2.491629         1.943566
 H         4.277947         1.889284         1.197745
 H         2.405342         2.209299        -2.084805
 H         4.184384         1.628825        -1.502301
 H         2.423498        -0.257127        -1.927333
