19
Iteration:  1717
 C         0.009275         0.505981        -0.107864
 C         1.419662         0.060030         0.058016
 O         1.885146        -1.319519         0.166193
 C         3.127845        -0.479172         0.026096
 C         2.533760         0.391819         1.079656
 C         3.029249         1.890304         1.182708
 O         2.702959         2.622241        -0.101636
 C         2.997798         1.840297        -1.239047
 C         2.471467         0.427869        -1.060880
 H        -0.630352         0.160432         0.745528
 H        -0.218057         1.678866         0.166654
 H        -0.355986         0.172227        -1.077388
 H         4.103709        -1.154448         0.125374
 H         2.324290        -0.056512         2.034024
 H         2.425882         2.331786         1.937007
 H         4.118538         1.915784         1.376429
 H         2.676151         2.401975        -2.082828
 H         4.014098         1.677185        -1.551008
 H         2.307903        -0.066646        -2.060192
