19
Iteration:  3633
 C        -0.011098         0.452082         0.007583
 C         1.494638         0.171863         0.091923
 O         1.818277        -1.294840         0.143471
 C         3.105880        -0.521211         0.048875
 C         2.544509         0.566268         1.130302
 C         3.012346         1.954864         1.081252
 O         2.678562         2.574744        -0.171528
 C         3.041597         1.708748        -1.256653
 C         2.506514         0.329614        -1.035735
 H        -0.637413        -0.196368         0.589676
 H        -0.344473         1.455425         0.189342
 H        -0.332084         0.235313        -1.007761
 H         4.156184        -0.761207        -0.024504
 H         2.267464         0.083620         2.063820
 H         2.674320         2.480218         2.017379
 H         4.083574         2.121251         1.324013
 H         2.660871         2.138728        -2.224131
 H         4.131956         1.755019        -1.369175
 H         2.299343        -0.188257        -2.010489
