19
Iteration:  4580
 C        -0.029496         0.347275         0.029690
 C         1.404487         0.155499         0.041792
 O         1.841011        -1.254397         0.142506
 C         3.170367        -0.457305         0.055544
 C         2.504827         0.522529         1.116218
 C         2.961666         1.974139         1.092150
 O         2.817262         2.595676        -0.164144
 C         3.064098         1.713390        -1.249903
 C         2.473844         0.368405        -1.087132
 H        -0.559003        -0.097586         0.915702
 H        -0.371128         1.384601         0.350890
 H        -0.522455         0.006852        -0.960453
 H         4.019387        -1.095665         0.172045
 H         2.407346         0.029553         2.100611
 H         2.144450         2.607015         1.682453
 H         4.062840         2.031946         1.618753
 H         2.604600         2.243261        -2.093006
 H         4.130862         1.590983        -1.429693
 H         2.203361        -0.095093        -2.086569
