19
Iteration:   966charge 0 multiplicity 1
 C        -0.137407         0.458990        -0.124461
 C         1.408833         0.155727         0.036387
 O         1.867397        -1.280020         0.132051
 C         3.115603        -0.533251         0.027961
 C         2.590676         0.501029         1.082801
 C         3.093608         1.889686         1.136010
 O         2.729293         2.565228        -0.032973
 C         2.961784         1.850605        -1.204454
 C         2.550756         0.344726        -1.040881
 H        -0.772408         0.085180         0.638390
 H        -0.195231         1.657123        -0.133480
 H        -0.530559         0.157479        -1.063711
 H         4.242282        -0.929412         0.142828
 H         2.392263         0.088513         2.115239
 H         2.611019         2.272211         2.051306
 H         4.168988         1.955894         1.394699
 H         2.400097         2.175644        -2.161408
 H         4.002785         1.653382        -1.599811
 H         2.372681        -0.139424        -2.016652
