19
Iteration:  2359
 C        -0.029426         0.453558        -0.134149
 C         1.425679         0.130954         0.046862
 O         1.854843        -1.273028         0.157816
 C         3.110142        -0.545979         0.030567
 C         2.611193         0.477223         1.077036
 C         3.046098         1.862199         1.205490
 O         2.659329         2.654184        -0.061147
 C         3.014262         1.827095        -1.275958
 C         2.480417         0.376923        -1.032136
 H        -0.684245        -0.070942         0.675124
 H        -0.221415         1.500859        -0.192698
 H        -0.241690         0.148323        -1.194801
 H         4.085694        -1.217970         0.009176
 H         2.484730         0.146748         2.144436
 H         2.489863         2.333025         1.938105
 H         4.218976         1.908117         1.253161
 H         2.450346         2.159140        -2.099672
 H         4.156884         1.840904        -1.291447
 H         2.374711        -0.275327        -1.887595
