19
Iteration:  3008
 C         0.056781         0.503536         0.017086
 C         1.461069         0.088455         0.075098
 O         1.888090        -1.303627         0.151568
 C         3.134912        -0.540428        -0.025370
 C         2.495997         0.483142         1.085338
 C         2.911653         1.991262         1.168354
 O         2.707451         2.661934        -0.119846
 C         3.044915         1.764102        -1.242551
 C         2.464329         0.298748        -1.074478
 H        -0.563656         0.362522         0.933792
 H        -0.045615         1.514886        -0.214094
 H        -0.418392        -0.041613        -0.818988
 H         4.012052        -1.282639        -0.172543
 H         2.516583         0.044873         2.079979
 H         2.265728         2.565276         1.770861
 H         4.006968         1.996156         1.489627
 H         2.600509         2.273705        -2.169274
 H         4.130589         1.626694        -1.504472
 H         2.374548        -0.305857        -2.032150
