19
Iteration:  2481charge 0 multiplicity 1
 C        -0.152964         0.385505         0.016124
 C         1.375824         0.058295         0.135641
 O         1.886355        -1.299034         0.058362
 C         3.133245        -0.507673        -0.008107
 C         2.530958         0.487920         1.138104
 C         2.886917         1.941884         1.191391
 O         2.871875         2.653336        -0.131388
 C         3.082172         1.840263        -1.283901
 C         2.537539         0.368836        -1.107606
 H        -0.605462        -0.073115         0.907554
 H        -0.190667         1.469512        -0.011349
 H        -0.820650         0.114435        -0.789772
 H         4.154167        -1.039726        -0.020933
 H         2.562044        -0.012286         2.100747
 H         2.169122         2.480936         1.727499
 H         3.816685         2.003925         1.850672
 H         2.693245         2.437780        -2.077912
 H         4.185410         1.624353        -1.472177
 H         2.429827        -0.023961        -2.120337
