19
Iteration:  1402charge 0 multiplicity 1
 C        -0.142141         0.426960         0.050076
 C         1.337275         0.145332         0.096184
 O         1.909372        -1.292024         0.110458
 C         3.078518        -0.470522        -0.037329
 C         2.540873         0.447911         1.074940
 C         2.956048         1.885627         1.122032
 O         2.736988         2.583321        -0.087400
 C         3.186420         1.793639        -1.189732
 C         2.525141         0.449757        -1.155938
 H        -0.747071         0.277298         0.827741
 H        -0.253031         1.488998        -0.346299
 H        -0.401577        -0.219321        -0.690299
 H         4.050176        -0.862975         0.019924
 H         2.564913        -0.077807         2.020529
 H         2.394463         2.403351         1.984204
 H         4.062556         1.909292         1.416114
 H         2.682373         2.264611        -2.009443
 H         4.294668         1.706386        -1.158748
 H         2.468118        -0.143267        -2.048155
