19
Iteration:   993
 C         0.013981         0.385500        -0.170469
 C         1.435599         0.081037         0.075977
 O         1.851161        -1.296937         0.170989
 C         3.082445        -0.529293         0.006949
 C         2.504630         0.516473         1.128127
 C         3.100943         1.902055         1.130228
 O         2.756429         2.615086        -0.035274
 C         3.028266         1.895370        -1.217078
 C         2.376685         0.398261        -1.069804
 H        -0.730201        -0.137826         0.583765
 H        -0.139717         1.402673        -0.117313
 H        -0.210959         0.202646        -1.292670
 H         4.050880        -0.895293         0.084099
 H         2.311145         0.071416         2.094780
 H         2.988710         2.474560         2.065546
 H         4.190698         1.736049         1.108964
 H         2.499751         2.485953        -1.977204
 H         4.074202         1.430904        -1.396552
 H         1.976550        -0.101569        -2.016849
