19
Iteration:  4338
 C        -0.137502         0.343281         0.015790
 C         1.346486         0.078802         0.079228
 O         1.842469        -1.276361         0.160913
 C         3.112120        -0.506106         0.051596
 C         2.541242         0.540743         1.074139
 C         2.984952         1.987695         1.098436
 O         2.826560         2.653295        -0.141445
 C         3.123708         1.769188        -1.259554
 C         2.515795         0.370841        -1.070908
 H        -0.627977        -0.005479         0.941459
 H        -0.222487         1.320068        -0.258099
 H        -0.613377        -0.082584        -0.905677
 H         4.057093        -0.972740         0.019964
 H         2.523887        -0.068792         2.002909
 H         2.556387         2.544053         1.893474
 H         4.087246         2.016735         1.600964
 H         2.585275         2.283036        -2.037582
 H         4.168231         1.633297        -1.538969
 H         2.185847        -0.157162        -1.985429
