19
Iteration:  4822charge 0 multiplicity 1
 C        -0.010473         0.403347        -0.070339
 C         1.436527         0.192028         0.029043
 O         1.841549        -1.274628         0.209674
 C         3.095620        -0.531396         0.168575
 C         2.473128         0.500776         1.107429
 C         3.043618         1.881475         1.024432
 O         2.758786         2.645074        -0.128459
 C         2.937053         1.779855        -1.301336
 C         2.599088         0.369727        -1.048671
 H        -0.543487         0.145612         0.864518
 H        -0.136218         1.494754        -0.111233
 H        -0.304121        -0.314267        -0.865489
 H         3.932198        -1.253178         0.220498
 H         2.276134         0.036564         2.088941
 H         2.777814         2.632164         1.914615
 H         4.151549         1.783956         1.301665
 H         2.115443         2.213106        -1.935677
 H         3.946476         1.941969        -1.752117
 H         2.529000        -0.202706        -2.024397
