19
Iteration:  4621charge 0 multiplicity 1
 C        -0.110069         0.469461        -0.026408
 C         1.426301         0.143855        -0.001443
 O         1.942712        -1.339037         0.131963
 C         3.128769        -0.605441         0.212041
 C         2.467861         0.564357         1.054400
 C         3.086121         1.935902         1.098138
 O         2.739992         2.599329        -0.156691
 C         2.967188         1.812195        -1.295108
 C         2.502203         0.378716        -1.018250
 H        -0.356223        -0.006248         0.923035
 H        -0.232251         1.473059        -0.073617
 H        -0.638063         0.193163        -0.944243
 H         4.002963        -1.254357         0.295686
 H         2.189793         0.327287         2.120675
 H         2.732425         2.579410         1.943715
 H         4.084170         1.896472         1.147416
 H         2.265492         2.298424        -2.021306
 H         4.119545         1.743948        -1.468323
 H         2.534773        -0.254805        -1.901282
