19
Iteration:  2729charge 0 multiplicity 1
 C         0.034461         0.379932        -0.018686
 C         1.414273         0.113127        -0.114629
 O         1.884590        -1.285708         0.085496
 C         3.106242        -0.461548         0.199414
 C         2.471593         0.491058         1.127211
 C         3.017157         1.917385         1.123021
 O         2.851352         2.675248        -0.080584
 C         2.870650         1.776864        -1.276746
 C         2.503703         0.320469        -1.060519
 H        -0.331406         0.051280         0.949617
 H        -0.028632         1.414260         0.043474
 H        -0.567555         0.052806        -0.842691
 H         3.964721        -0.968628         0.170170
 H         2.188180         0.195277         2.157025
 H         2.580318         2.428017         2.035418
 H         4.087935         1.823097         1.167158
 H         2.151256         2.238389        -2.097036
 H         3.935965         1.936460        -1.577693
 H         2.476109        -0.298701        -1.926260
