19
Iteration:  3947charge 0 multiplicity 1
 C        -0.114576         0.341327        -0.103213
 C         1.401906         0.105565         0.015963
 O         1.864134        -1.338660         0.259060
 C         3.091855        -0.447536         0.044050
 C         2.479195         0.530182         1.153674
 C         3.092803         1.959241         1.079703
 O         2.833695         2.635515        -0.143810
 C         3.041640         1.793204        -1.255754
 C         2.450307         0.374868        -1.026856
 H        -0.660410         0.078307         0.815036
 H        -0.169793         1.481861        -0.217675
 H        -0.423987        -0.123128        -1.056430
 H         4.087941        -0.960845        -0.152321
 H         2.320700         0.171199         2.218134
 H         2.727522         2.612897         1.996349
 H         4.267853         1.909128         1.138867
 H         2.371846         2.150072        -2.057586
 H         4.015277         1.829888        -1.555108
 H         2.226408        -0.230621        -1.949530
