19
Iteration:  1810
 C        -0.159834         0.351884        -0.067596
 C         1.369888         0.096183         0.036148
 O         1.847186        -1.293874         0.038151
 C         3.097547        -0.458005         0.059738
 C         2.587108         0.521573         1.098325
 C         3.063514         1.941008         1.133414
 O         2.772190         2.605095        -0.066605
 C         3.119479         1.778744        -1.188498
 C         2.440692         0.397749        -1.057308
 H        -0.480501         0.186941         0.948130
 H        -0.256395         1.389872        -0.120073
 H        -0.585862        -0.339655        -0.813524
 H         4.014554        -0.795538         0.265617
 H         2.507580        -0.020230         2.080493
 H         2.510997         2.574214         1.946192
 H         4.187262         2.078639         1.301641
 H         2.751581         2.297923        -2.121444
 H         4.157590         1.805348        -1.321357
 H         2.305023        -0.156548        -1.975783
