19
Iteration:  2139
 C        -0.027466         0.470090        -0.084882
 C         1.371402         0.141999        -0.025720
 O         1.891890        -1.310533         0.188468
 C         3.084906        -0.489053         0.007095
 C         2.604401         0.441911         1.100675
 C         3.003267         1.892713         1.148112
 O         2.689376         2.558466        -0.091554
 C         3.124279         1.836441        -1.185555
 C         2.442769         0.405041        -1.079560
 H        -0.571418         0.193142         0.886059
 H        -0.153414         1.546237        -0.152603
 H        -0.426466        -0.190960        -0.918885
 H         4.095415        -1.077375         0.046020
 H         2.308589        -0.036810         2.061354
 H         2.300299         2.477344         1.833009
 H         4.032567         2.086862         1.493460
 H         2.708948         2.326058        -2.109038
 H         4.233751         1.866502        -1.335871
 H         2.173647         0.000370        -2.006186
