19
Iteration:  1254
 C        -0.077970         0.438500         0.131133
 C         1.356984         0.148753        -0.085560
 O         1.836818        -1.329220        -0.087751
 C         3.130164        -0.487322         0.074359
 C         2.439297         0.536378         1.110089
 C         3.049531         1.960263         1.180602
 O         2.736210         2.596445        -0.078743
 C         3.085400         1.759126        -1.196296
 C         2.568324         0.350391        -1.055026
 H        -0.255081         0.222550         1.243931
 H        -0.261673         1.417847        -0.084585
 H        -0.723372        -0.210709        -0.540305
 H         4.281097        -0.835107         0.239075
 H         2.254594        -0.032137         2.030929
 H         2.343747         2.500439         1.804049
 H         4.101578         1.953045         1.543064
 H         2.835869         2.234307        -2.161175
 H         4.179184         1.660638        -1.364277
 H         2.694352        -0.108502        -2.058409
