19
Iteration:   555
 C        -0.110026         0.438554         0.003441
 C         1.392634         0.131099         0.057971
 O         1.883089        -1.286608         0.123369
 C         3.181739        -0.550110        -0.095337
 C         2.568423         0.475292         1.107096
 C         2.963484         1.865186         1.205893
 O         2.735022         2.630580        -0.147272
 C         3.137332         1.786731        -1.203300
 C         2.465479         0.414943        -1.052997
 H        -0.639688         0.372768         0.950128
 H        -0.278495         1.611048        -0.286477
 H        -0.829744        -0.025099        -0.650585
 H         4.049708        -1.224992        -0.303675
 H         2.641622         0.057523         2.173795
 H         2.124443         2.327444         1.798444
 H         3.926590         2.155558         1.581667
 H         2.872768         2.370902        -2.168631
 H         4.270324         1.670565        -1.058084
 H         2.033092        -0.010969        -2.020742
