19
Iteration:  3463charge 0 multiplicity 1
 C         0.086913         0.468825         0.037882
 C         1.464615         0.123436        -0.050812
 O         1.820845        -1.319869         0.138599
 C         3.135145        -0.439627         0.142029
 C         2.449122         0.490965         1.106732
 C         2.954063         1.920184         1.053107
 O         2.741439         2.639373        -0.150333
 C         2.990864         1.752561        -1.238503
 C         2.520383         0.311781        -1.030087
 H        -0.302686        -0.142427         0.841364
 H        -0.093087         1.560172         0.250251
 H        -0.526246         0.354059        -0.829942
 H         4.169529        -1.002162         0.016547
 H         2.039653         0.207557         2.082063
 H         2.568533         2.625063         1.768934
 H         4.166548         1.812170         1.089901
 H         2.433287         2.206052        -2.026542
 H         4.028075         1.697879        -1.536906
 H         2.548864        -0.416826        -1.804179
