19
Iteration:  1559
 C         0.017337         0.456973         0.050100
 C         1.478520         0.067770        -0.073650
 O         1.880644        -1.282580         0.005718
 C         3.094481        -0.461954         0.096361
 C         2.422765         0.537766         1.062281
 C         2.979074         1.912434         1.163184
 O         2.734301         2.595076        -0.014299
 C         3.059848         1.762481        -1.234204
 C         2.488694         0.367935        -1.070396
 H        -0.158853         0.090771         1.145345
 H        -0.059696         1.519283        -0.131988
 H        -0.687425        -0.056813        -0.692281
 H         3.911876        -1.111857        -0.030996
 H         2.192602         0.099295         2.096448
 H         2.508366         2.585026         1.866300
 H         4.128092         1.725931         1.252108
 H         2.559257         2.412832        -2.042487
 H         4.182517         1.910489        -1.450729
 H         2.339385        -0.344222        -1.892443
