19
Iteration:  3377charge 0 multiplicity 1
 C        -0.184625         0.407479         0.024401
 C         1.355925         0.152929        -0.021136
 O         1.903708        -1.332499         0.175078
 C         3.082705        -0.490555         0.098712
 C         2.535025         0.442023         1.066583
 C         3.073911         1.930008         1.112172
 O         2.721036         2.650795        -0.184901
 C         3.071987         1.766770        -1.282329
 C         2.612108         0.429081        -1.024413
 H        -0.499136         0.294531         1.060641
 H        -0.246034         1.518581        -0.185150
 H        -0.803631        -0.268664        -0.577545
 H         4.057644        -1.104069         0.290161
 H         2.280766         0.125536         2.064548
 H         2.628186         2.382155         1.996483
 H         4.034132         1.924265         1.409394
 H         2.484927         2.196112        -2.106367
 H         4.182980         1.842876        -1.573100
 H         2.565474        -0.105111        -2.005484
