19
Iteration:  2992
 C        -0.120947         0.464107        -0.020020
 C         1.430264         0.165992         0.088100
 O         1.859722        -1.352988         0.114029
 C         3.153418        -0.530240         0.069060
 C         2.664564         0.513454         1.078860
 C         2.964729         1.962768         1.121314
 O         2.727029         2.552923        -0.133282
 C         3.049753         1.748131        -1.229607
 C         2.490884         0.398361        -1.098372
 H        -0.534516         0.376051         0.983916
 H        -0.157407         1.562845        -0.351877
 H        -0.578774        -0.197615        -0.761094
 H         4.130494        -0.920559         0.110822
 H         2.436876         0.053843         2.069160
 H         2.151751         2.333873         1.906363
 H         4.015216         2.396932         1.385982
 H         2.547332         2.278696        -2.048342
 H         4.124310         1.864371        -1.180399
 H         2.132751        -0.074394        -2.012462
