19
Iteration:  2011
 C         0.037467         0.427785        -0.084566
 C         1.428491         0.047551        -0.024358
 O         1.842807        -1.271207         0.152451
 C         3.175181        -0.461206         0.079544
 C         2.425958         0.437004         1.167233
 C         2.998386         1.900557         1.140006
 O         2.898968         2.587219        -0.054144
 C         2.880540         1.864238        -1.293015
 C         2.471816         0.403444        -1.076249
 H        -0.430248        -0.212852         0.743775
 H         0.013320         1.538536        -0.182517
 H        -0.396308         0.131308        -1.073137
 H         4.063960        -1.056046         0.021794
 H         2.116351         0.011370         2.178095
 H         2.448064         2.680845         1.789050
 H         3.997594         1.893680         1.549821
 H         2.191002         2.529950        -1.932293
 H         3.937957         1.837070        -1.629955
 H         2.425459        -0.292596        -2.028194
