19
Iteration:  4374
 C        -0.080753         0.368818         0.098902
 C         1.397794         0.143618         0.048726
 O         1.893732        -1.279071         0.128092
 C         3.103708        -0.496367         0.036256
 C         2.428973         0.500313         1.044617
 C         2.908847         2.007974         1.146097
 O         2.838934         2.578106        -0.155060
 C         3.184107         1.762992        -1.289753
 C         2.450284         0.350694        -1.071671
 H        -0.621952         0.087828         0.982821
 H        -0.148563         1.460545         0.170288
 H        -0.493732        -0.128935        -0.734569
 H         4.136530        -0.893292         0.191998
 H         2.520767         0.182227         2.092880
 H         2.316794         2.648852         1.705439
 H         4.048918         1.868211         1.430189
 H         2.647838         2.255490        -2.077578
 H         4.227147         1.763287        -1.564029
 H         2.174452        -0.135909        -2.018636
