19
Iteration:  3420charge 0 multiplicity 1
 C        -0.015119         0.484255        -0.101463
 C         1.410520         0.162645         0.076748
 O         1.889152        -1.280535         0.183465
 C         3.119902        -0.476483         0.072904
 C         2.557510         0.475544         1.155705
 C         3.071154         1.913778         1.100629
 O         2.687292         2.580704        -0.154926
 C         2.987542         1.760257        -1.289013
 C         2.454776         0.324748        -0.991187
 H        -0.608956        -0.119665         0.578574
 H        -0.162185         1.592030         0.068843
 H        -0.301987         0.233824        -1.134424
 H         4.210186        -0.955989        -0.035188
 H         2.486991        -0.050595         2.106205
 H         2.467639         2.463881         1.835721
 H         4.138150         2.184608         1.316970
 H         2.485124         2.096029        -2.193372
 H         4.083590         1.753400        -1.455328
 H         2.185740        -0.187102        -1.923151
