19
Iteration:  2287charge 0 multiplicity 1
 C        -0.018410         0.336305         0.077802
 C         1.440121         0.106071        -0.060622
 O         1.857099        -1.290307         0.037766
 C         3.085529        -0.520203         0.063366
 C         2.406753         0.517580         1.081824
 C         2.963200         1.969059         1.208409
 O         2.824124         2.634212        -0.080200
 C         3.090087         1.756088        -1.274650
 C         2.529846         0.429367        -1.072700
 H        -0.236678         0.206908         1.131871
 H        -0.061106         1.483893        -0.048032
 H        -0.681893        -0.131513        -0.616773
 H         3.978972        -0.997974        -0.043496
 H         2.095831         0.046906         2.005039
 H         2.111094         2.566733         1.773855
 H         3.961611         2.061011         1.575618
 H         2.598497         2.282929        -2.190914
 H         4.205449         1.682586        -1.309051
 H         2.411756        -0.283809        -1.976021
