19
Iteration:    91charge 0 multiplicity 1
 C         0.038481         0.455673         0.044625
 C         1.439613         0.202207         0.007060
 O         1.838462        -1.289595         0.057544
 C         3.080497        -0.471486         0.134012
 C         2.467944         0.514793         1.120830
 C         3.044922         1.816030         1.142966
 O         2.755171         2.483395        -0.052547
 C         3.000610         1.838470        -1.320103
 C         2.542639         0.425306        -1.105788
 H        -0.473925        -0.035247         0.835964
 H        -0.262705         1.419473         0.083844
 H        -0.431462        -0.004876        -0.915460
 H         4.109669        -1.070999         0.239385
 H         2.011013        -0.015845         2.059324
 H         2.641675         2.548078         1.895681
 H         4.130770         1.859727         1.239168
 H         2.328450         2.481167        -2.020471
 H         3.982575         2.000804        -1.721951
 H         2.336730        -0.106976        -2.148351
