19
Iteration:  3606charge 0 multiplicity 1
 C        -0.076966         0.510386        -0.068493
 C         1.379752         0.043015         0.062583
 O         1.918007        -1.331568         0.194373
 C         3.072629        -0.510504         0.122745
 C         2.587629         0.557717         1.092850
 C         3.055504         1.910956         1.092202
 O         2.752332         2.635579        -0.151436
 C         2.957411         1.820997        -1.297416
 C         2.479777         0.295800        -1.044524
 H        -0.690042        -0.083122         0.700795
 H        -0.260261         1.637675         0.070866
 H        -0.554220         0.217767        -1.090808
 H         4.178794        -0.951909         0.216518
 H         2.532006         0.121824         2.105996
 H         2.508508         2.385238         1.896500
 H         4.179048         2.028202         1.339985
 H         2.616527         2.325086        -2.202100
 H         4.130238         1.762940        -1.389610
 H         2.408896        -0.299116        -1.944726
