19
Iteration:  3457
 C         0.028289         0.501664         0.036130
 C         1.396853         0.104910        -0.048049
 O         1.886872        -1.288170         0.160031
 C         3.141307        -0.485188         0.126542
 C         2.434442         0.468057         1.075336
 C         3.033728         1.923343         1.069613
 O         2.722443         2.650815        -0.161975
 C         2.984394         1.736328        -1.237523
 C         2.557047         0.290201        -1.018422
 H        -0.494324        -0.102024         0.835593
 H        -0.073949         1.541954         0.266599
 H        -0.547842         0.439360        -0.966674
 H         4.118160        -0.862155         0.163031
 H         2.114722         0.203472         2.092132
 H         2.463452         2.512740         1.855927
 H         4.056912         1.834482         1.219286
 H         2.382103         2.248148        -2.064677
 H         4.078960         1.849474        -1.547844
 H         2.486174        -0.390406        -1.958024
