19
Iteration:  1031charge 0 multiplicity 1
 C        -0.133368         0.365588         0.024905
 C         1.429611         0.168962        -0.064184
 O         1.814351        -1.254385        -0.007966
 C         3.127842        -0.528205         0.119560
 C         2.474078         0.503762         1.126047
 C         3.038572         1.900099         1.200666
 O         2.799866         2.586883        -0.068064
 C         2.993454         1.802194        -1.267053
 C         2.646266         0.377537        -1.080890
 H        -0.420281         0.031126         0.959279
 H        -0.271816         1.517198         0.076764
 H        -0.753434        -0.113795        -0.651889
 H         4.149386        -1.075978         0.255543
 H         2.158066         0.131742         2.137605
 H         2.543729         2.547641         1.930156
 H         4.171374         1.887242         1.408553
 H         2.534019         2.407383        -2.139982
 H         3.993863         1.989506        -1.576182
 H         2.396949        -0.171734        -1.988940
