19
Iteration:   757
 C         0.040487         0.440626         0.019851
 C         1.465205         0.142053         0.036708
 O         1.877902        -1.270121         0.098201
 C         3.108182        -0.483314        -0.051198
 C         2.485476         0.422796         1.084550
 C         2.967662         1.916764         1.155252
 O         2.742495         2.604599        -0.045501
 C         3.037760         1.739444        -1.222144
 C         2.430534         0.419360        -1.093084
 H        -0.451795         0.236365         1.012023
 H        -0.203862         1.536319        -0.316405
 H        -0.518298        -0.148262        -0.854900
 H         4.068760        -1.119295        -0.084080
 H         2.319206         0.023852         2.074992
 H         2.436604         2.614630         1.845024
 H         3.990770         2.043896         1.660276
 H         2.726281         2.354877        -1.991835
 H         4.138520         1.608067        -1.380501
 H         2.387884        -0.124390        -2.058523
