19
Iteration:  2966
 C        -0.051410         0.380533         0.024042
 C         1.424591         0.125168         0.071121
 O         1.845747        -1.241841         0.116708
 C         3.124296        -0.488184         0.031915
 C         2.437035         0.524660         1.131047
 C         3.059377         1.918303         1.117283
 O         2.733145         2.587495        -0.118540
 C         3.044040         1.795173        -1.266626
 C         2.554292         0.352781        -1.100572
 H        -0.471906         0.246699         1.099021
 H        -0.240990         1.360938        -0.355491
 H        -0.435472        -0.450444        -0.706712
 H         4.156384        -0.998373        -0.034815
 H         2.119254         0.070781         2.057831
 H         2.625408         2.501258         1.854211
 H         4.143508         1.942742         1.159600
 H         2.655231         2.306601        -2.097818
 H         4.109970         1.957356        -1.185222
 H         2.213313        -0.216457        -1.951637
