19
Iteration:   617charge 0 multiplicity 1
 C        -0.146497         0.417530         0.013620
 C         1.446462         0.190914        -0.014272
 O         1.781266        -1.325521         0.051208
 C         3.144164        -0.466553         0.138119
 C         2.477730         0.512366         1.096508
 C         3.104891         1.830315         1.116762
 O         2.763502         2.580452        -0.074932
 C         2.960882         1.913929        -1.281827
 C         2.682420         0.343539        -1.058390
 H        -0.542798        -0.114735         0.853459
 H        -0.326412         1.513958        -0.024453
 H        -0.414566        -0.009516        -0.864405
 H         4.107908        -1.017500         0.379277
 H         2.345102         0.022588         2.121398
 H         2.544669         2.360223         1.917129
 H         4.167410         1.825664         1.474902
 H         2.151590         2.239472        -2.004304
 H         3.899630         2.032340        -1.743947
 H         2.556388        -0.283360        -1.950120
