19
Iteration:  1025charge 0 multiplicity 1
 C        -0.155603         0.410940        -0.007654
 C         1.419193         0.151929        -0.067551
 O         1.816931        -1.260390         0.003329
 C         3.115115        -0.542806         0.106452
 C         2.533509         0.476479         1.138748
 C         3.045525         1.900677         1.193570
 O         2.786591         2.622460        -0.075533
 C         3.006688         1.803645        -1.247376
 C         2.640658         0.370800        -1.035725
 H        -0.570807        -0.106654         0.992994
 H        -0.465037         1.409869         0.074083
 H        -0.721893        -0.186928        -0.835194
 H         4.104430        -0.880915         0.272096
 H         2.258453         0.070944         2.091210
 H         2.626828         2.573976         1.950480
 H         4.123494         1.892981         1.173845
 H         2.488055         2.455141        -1.908059
 H         4.077201         1.886824        -1.777827
 H         2.409731        -0.216574        -1.938617
