19
Iteration:  4434charge 0 multiplicity 1
 C        -0.005852         0.510411        -0.021849
 C         1.405555         0.128088         0.007716
 O         1.853582        -1.308886         0.182034
 C         3.188324        -0.450621         0.102142
 C         2.521193         0.507925         1.150709
 C         3.020296         1.924322         1.104633
 O         2.699306         2.537948        -0.138437
 C         3.011917         1.769582        -1.296590
 C         2.459093         0.342246        -1.071977
 H        -0.598077         0.125933         0.877350
 H        -0.195717         1.608860        -0.251424
 H        -0.414408         0.140577        -1.045644
 H         4.217220        -0.928363         0.134639
 H         2.431198        -0.055486         2.098730
 H         2.677313         2.656673         1.952840
 H         4.050943         1.902604         1.234632
 H         2.448236         2.269305        -2.175035
 H         4.076280         1.708232        -1.362944
 H         2.495533        -0.328409        -1.946989
