19
Iteration:  2497charge 0 multiplicity 1
 C        -0.135319         0.393984         0.098194
 C         1.402313         0.116541        -0.063158
 O         1.885198        -1.362182         0.002314
 C         3.141402        -0.498616         0.046730
 C         2.485684         0.474164         1.067786
 C         2.957998         2.025975         1.131682
 O         2.856586         2.679683        -0.093943
 C         3.079364         1.755939        -1.190729
 C         2.525939         0.382137        -1.005060
 H        -0.598525        -0.093511         0.971657
 H        -0.443964         1.465141         0.165105
 H        -0.553377        -0.029642        -0.851044
 H         4.073449        -1.029765         0.035021
 H         2.208410         0.080629         2.076205
 H         2.252609         2.511705         1.920785
 H         4.023539         2.025835         1.413663
 H         2.389330         2.164510        -2.057765
 H         4.188134         1.781342        -1.375693
 H         2.356195        -0.205054        -1.953934
