19
Iteration:  4262charge 0 multiplicity 1
 C         0.026995         0.530675        -0.095811
 C         1.431418         0.112722         0.089596
 O         1.896306        -1.306472         0.187519
 C         3.179653        -0.588108         0.059742
 C         2.523466         0.525267         1.135611
 C         3.007481         1.910925         1.105306
 O         2.683534         2.639857        -0.129853
 C         2.961442         1.762412        -1.254671
 C         2.465371         0.362870        -1.059481
 H        -0.626415         0.116117         0.711121
 H         0.035278         1.585413        -0.200845
 H        -0.531822         0.092438        -0.991985
 H         4.005155        -1.201090         0.178667
 H         2.372348         0.221854         2.218079
 H         2.498520         2.493790         1.814838
 H         4.118775         1.725048         1.224783
 H         2.601232         2.269647        -2.105671
 H         4.035024         1.706973        -1.618819
 H         2.308594        -0.193586        -2.002958
