19
Iteration:  2545charge 0 multiplicity 1
 C        -0.139097         0.390711        -0.082858
 C         1.382644         0.201521         0.054221
 O         1.878641        -1.298698         0.075652
 C         3.077069        -0.469931         0.052166
 C         2.529568         0.507190         1.085329
 C         3.128842         1.900065         1.135179
 O         2.707423         2.581186        -0.079302
 C         2.985712         1.785048        -1.182812
 C         2.596168         0.384584        -1.065211
 H        -0.621537        -0.042307         0.885644
 H        -0.344467         1.495668        -0.080464
 H        -0.478952        -0.079318        -1.044331
 H         4.176633        -1.013084         0.300667
 H         2.556195         0.114668         2.131600
 H         2.621757         2.367971         1.976495
 H         4.224202         1.988060         1.114687
 H         2.407348         2.123688        -1.990958
 H         4.082525         1.876548        -1.319365
 H         2.510321        -0.189569        -1.960849
