19
Iteration:   640
 C        -0.029520         0.410323        -0.078130
 C         1.433448         0.124081        -0.033162
 O         1.895237        -1.301144         0.091812
 C         3.101541        -0.531269         0.096556
 C         2.438849         0.481342         1.140580
 C         3.072538         1.921884         1.139552
 O         2.809323         2.656818        -0.081363
 C         2.932820         1.835059        -1.203356
 C         2.455505         0.352248        -1.041078
 H        -0.607890        -0.107473         0.628761
 H         0.088159         1.574911         0.098263
 H        -0.303107         0.306273        -1.048424
 H         4.049827        -1.171432         0.058938
 H         2.469553        -0.121132         2.136017
 H         2.732980         2.533353         2.024419
 H         4.187787         1.818287         1.286926
 H         2.181126         2.299831        -1.974266
 H         3.873240         1.769173        -1.692161
 H         2.437031        -0.163765        -2.026416
