19
Iteration:  1734charge 0 multiplicity 1
 C         0.008942         0.520941        -0.009094
 C         1.424923         0.206087         0.033313
 O         1.921686        -1.387706         0.048572
 C         3.118411        -0.523933         0.008648
 C         2.534767         0.499405         1.093083
 C         2.904696         1.941042         1.120371
 O         2.756306         2.599350        -0.036545
 C         3.028763         1.759350        -1.190242
 C         2.441171         0.305272        -1.078326
 H        -0.635475         0.226441         0.895082
 H         0.149287         1.487103        -0.083335
 H        -0.308090         0.083364        -1.008175
 H         4.037827        -0.934586        -0.110851
 H         2.509485         0.058681         2.137097
 H         2.411822         2.648555         1.890287
 H         3.949059         2.086972         1.537769
 H         2.469654         2.304880        -2.026560
 H         4.184823         1.863298        -1.262848
 H         2.088881        -0.164827        -1.986562
