19
Iteration:   201charge 0 multiplicity 1
 C        -0.030112         0.417451         0.106294
 C         1.458829         0.162376        -0.028976
 O         1.788038        -1.248140         0.033433
 C         3.082522        -0.605851         0.037647
 C         2.474617         0.463943         1.027261
 C         2.953333         1.920856         1.087814
 O         2.800656         2.665437        -0.078920
 C         3.046213         1.824297        -1.191574
 C         2.604590         0.354766        -1.004419
 H        -0.211027         0.246380         1.153232
 H        -0.184238         1.395745        -0.161427
 H        -0.584696        -0.276485        -0.568044
 H         4.061841        -1.247899         0.008911
 H         2.344981         0.050447         2.082217
 H         2.287941         2.382219         1.872750
 H         3.982494         1.899061         1.479767
 H         2.449411         2.255467        -2.099047
 H         4.126094         1.826438        -1.492833
 H         2.472884        -0.106278        -2.051491
