19
Iteration:  2347charge 0 multiplicity 1
 C         0.070833         0.465986        -0.106972
 C         1.475158         0.195335         0.096151
 O         1.840260        -1.354077         0.112309
 C         3.114418        -0.532628         0.040263
 C         2.506813         0.487800         1.077744
 C         3.007330         1.957858         1.109123
 O         2.709794         2.623432        -0.040311
 C         2.951711         1.789404        -1.201439
 C         2.498678         0.326048        -1.087933
 H        -0.615396        -0.054262         0.644271
 H        -0.086400         1.529437        -0.026379
 H        -0.263828         0.009196        -1.074237
 H         4.182474        -1.067522         0.086699
 H         2.277065        -0.042642         2.038114
 H         2.536897         2.418522         1.908071
 H         4.105761         2.054251         1.535539
 H         2.638309         2.385444        -1.966183
 H         4.080482         1.748229        -1.511091
 H         2.087202        -0.018046        -1.999332
