19
Iteration:  2536charge 0 multiplicity 1
 C        -0.142267         0.373054        -0.032845
 C         1.361442         0.191370         0.012756
 O         1.856841        -1.254982         0.105426
 C         3.132857        -0.446322         0.103527
 C         2.506133         0.449906         1.104917
 C         3.087095         1.862021         1.115341
 O         2.692779         2.573572        -0.077130
 C         3.077294         1.824725        -1.224742
 C         2.594963         0.374567        -1.068611
 H        -0.614434        -0.088909         0.857463
 H        -0.370400         1.478521         0.053430
 H        -0.535780        -0.112668        -0.920008
 H         4.251264        -0.860331         0.047903
 H         2.186615        -0.080652         1.985436
 H         2.769723         2.561242         1.824733
 H         4.226325         1.853752         1.209532
 H         2.517793         2.262594        -1.992015
 H         4.040049         1.950548        -1.658243
 H         2.566776        -0.062305        -2.072925
