19
Iteration:   419
 C        -0.026486         0.437934         0.044180
 C         1.390663         0.108765         0.026867
 O         1.868577        -1.341738         0.025265
 C         3.060888        -0.450954         0.028904
 C         2.445636         0.453306         1.060882
 C         3.032792         1.930842         1.142805
 O         2.783734         2.641699        -0.033344
 C         3.057431         1.825910        -1.245862
 C         2.484894         0.350782        -1.076178
 H        -0.411744         0.266476         1.093844
 H         0.053533         1.479359        -0.109148
 H        -0.589624        -0.150809        -0.736603
 H         4.039082        -0.900753         0.123759
 H         2.397900        -0.020220         2.023678
 H         2.716394         2.459446         2.035651
 H         4.109292         1.886882         1.174594
 H         2.581064         2.398543        -2.070625
 H         4.189434         1.766798        -1.385759
 H         2.368507        -0.313102        -1.894147
