19
Iteration:  2508charge 0 multiplicity 1
 C        -0.000745         0.341083         0.074227
 C         1.410905         0.167909         0.002343
 O         1.882250        -1.331301         0.011189
 C         3.037907        -0.500492         0.128030
 C         2.428134         0.511662         1.064109
 C         3.009704         1.918733         1.108916
 O         2.801417         2.656866        -0.103510
 C         3.056502         1.799554        -1.187445
 C         2.523095         0.376319        -1.100343
 H        -0.349258        -0.208536         0.975654
 H        -0.163172         1.440231         0.118142
 H        -0.627903        -0.025842        -0.762385
 H         4.028870        -0.836971         0.290696
 H         2.147314         0.044021         2.041653
 H         2.457025         2.594197         1.883176
 H         4.026398         1.876096         1.531970
 H         2.581221         2.395593        -2.106893
 H         4.143538         1.705510        -1.525043
 H         2.477518        -0.019801        -2.144333
