19
Iteration:  2368charge 0 multiplicity 1
 C        -0.111100         0.451099        -0.157551
 C         1.389637         0.103511        -0.008592
 O         1.850818        -1.246451         0.175991
 C         3.116327        -0.507608         0.073115
 C         2.657632         0.410025         1.171731
 C         3.061072         1.894492         1.139476
 O         2.655734         2.605753        -0.088939
 C         3.018266         1.832927        -1.198833
 C         2.517516         0.406548        -1.064995
 H        -0.751331        -0.088605         0.577185
 H        -0.188724         1.532217        -0.141532
 H        -0.565354         0.036137        -1.090492
 H         4.076320        -1.203466        -0.046474
 H         2.603386        -0.173437         2.124465
 H         2.775711         2.492774         1.947819
 H         4.208019         2.015968         1.304871
 H         2.560745         2.244864        -2.039628
 H         4.147369         1.998532        -1.570076
 H         2.476111        -0.142699        -1.996282
