19
Iteration:  3974charge 0 multiplicity 1
 C        -0.056785         0.377736         0.016287
 C         1.421789         0.135081        -0.001916
 O         1.859951        -1.287376         0.111269
 C         3.091981        -0.503083         0.152646
 C         2.482667         0.566411         1.137627
 C         3.007565         1.936775         1.107396
 O         2.835155         2.643170        -0.156925
 C         2.994643         1.776684        -1.287354
 C         2.526512         0.319949        -1.074868
 H        -0.490395         0.094432         0.997751
 H        -0.095541         1.536648         0.062815
 H        -0.534550        -0.118040        -0.849185
 H         3.989264        -1.104654         0.344761
 H         2.242506         0.256254         2.152690
 H         2.445938         2.427749         1.826796
 H         4.060850         1.875792         1.176641
 H         2.304873         2.103436        -2.091483
 H         4.091793         1.889200        -1.719945
 H         2.491062        -0.414004        -1.862058
