19
Iteration:  4504charge 0 multiplicity 1
 C        -0.107093         0.462848         0.020238
 C         1.379460         0.159407         0.035685
 O         1.924536        -1.290300         0.123744
 C         3.123442        -0.495086         0.125804
 C         2.496050         0.468753         1.104768
 C         3.019228         1.944467         1.118400
 O         2.746722         2.563016        -0.181993
 C         3.005786         1.796069        -1.278425
 C         2.618614         0.339369        -1.058202
 H        -0.502039         0.283606         1.066093
 H        -0.474276         1.491763        -0.272793
 H        -0.740745        -0.003836        -0.810812
 H         4.035594        -1.045864         0.244508
 H         2.189234         0.064039         2.094944
 H         2.677471         2.594796         1.909523
 H         4.022855         1.912395         1.183701
 H         2.273952         2.240758        -1.905633
 H         4.111862         1.860542        -1.527241
 H         2.490669        -0.322389        -1.963475
