19
Iteration:  4032
 C         0.008906         0.515910         0.042640
 C         1.456749         0.081083         0.072618
 O         1.826454        -1.391636         0.195552
 C         3.158390        -0.552522        -0.009942
 C         2.553424         0.536426         1.058681
 C         2.921189         2.014043         1.093323
 O         2.720170         2.649972        -0.203129
 C         3.078275         1.748397        -1.185125
 C         2.452566         0.338714        -1.068352
 H        -0.628753         0.111096         0.876351
 H        -0.086686         1.532650        -0.093016
 H        -0.597370         0.175397        -0.865020
 H         4.042206        -1.129226         0.077823
 H         2.385481        -0.029934         2.078817
 H         2.432617         2.615289         1.926655
 H         3.952015         2.252347         1.376902
 H         2.795652         2.173134        -2.160887
 H         4.294833         1.686266        -1.162231
 H         2.352713        -0.157113        -2.073201
