19
Iteration:  2896charge 0 multiplicity 1
 C        -0.044493         0.340853        -0.092824
 C         1.455709         0.183885         0.044033
 O         1.888347        -1.297123         0.168297
 C         3.149848        -0.452929         0.039078
 C         2.537139         0.495077         1.179321
 C         3.015419         1.918758         1.165160
 O         2.881242         2.629215        -0.113950
 C         2.917894         1.744804        -1.288892
 C         2.377715         0.378702        -1.090886
 H        -0.472405        -0.107987         0.741184
 H        -0.134161         1.473381         0.088092
 H        -0.423792         0.105471        -1.044407
 H         4.098576        -0.963069        -0.054384
 H         2.155993         0.069446         2.145897
 H         2.270294         2.520681         1.722197
 H         4.018337         1.978641         1.563039
 H         2.342065         2.525794        -1.965564
 H         3.969916         1.568258        -1.575385
 H         2.203415        -0.242779        -2.039296
