19
Iteration:  3103charge 0 multiplicity 1
 C        -0.122366         0.357752        -0.089131
 C         1.332323         0.111166         0.038003
 O         1.860831        -1.329738         0.200958
 C         3.172799        -0.464745         0.028928
 C         2.524850         0.488955         1.062118
 C         3.150492         2.095940         1.140944
 O         2.785014         2.629934        -0.120718
 C         3.049333         1.797213        -1.249219
 C         2.408647         0.295115        -1.005419
 H        -0.538947        -0.124330         0.788567
 H        -0.535157         1.500473         0.013582
 H        -0.492706        -0.105257        -0.984148
 H         4.051527        -0.963975        -0.075437
 H         2.321058         0.024290         2.052108
 H         2.493878         2.369529         2.021531
 H         4.208374         1.905639         1.306644
 H         2.565165         2.269446        -2.177509
 H         4.181937         1.825111        -1.428100
 H         2.464150        -0.127690        -2.004079
