19
Iteration:   392
 C        -0.183140         0.548721         0.140575
 C         1.448004         0.169530        -0.046795
 O         1.951465        -1.308237         0.006628
 C         3.162109        -0.487805         0.079261
 C         2.419370         0.360563         1.066903
 C         2.956613         1.838066         1.165502
 O         2.798186         2.586703        -0.106326
 C         3.030472         1.841019        -1.298225
 C         2.524257         0.388513        -1.064806
 H        -0.228984         0.361999         1.180927
 H        -0.202598         1.666965        -0.111242
 H        -0.812575        -0.167003        -0.371785
 H         4.148848        -0.946674         0.334465
 H         2.224574        -0.044376         2.089625
 H         2.460634         2.425187         2.005774
 H         4.021196         2.084551         1.355143
 H         2.708243         2.471348        -2.132139
 H         4.146277         1.604990        -1.364939
 H         2.493312        -0.267253        -2.000995
