19
Iteration:  3263charge 0 multiplicity 1
 C        -0.123621         0.464703         0.051226
 C         1.353780         0.132033         0.013633
 O         1.881161        -1.334364         0.140321
 C         3.132512        -0.423076         0.142332
 C         2.452307         0.470232         1.138348
 C         3.004306         1.896923         1.053320
 O         2.753392         2.580288        -0.140561
 C         3.037833         1.847336        -1.320349
 C         2.647695         0.348784        -1.055034
 H        -0.693158        -0.182735         0.754851
 H        -0.287355         1.474886         0.308989
 H        -0.540396         0.242461        -0.971116
 H         4.073741        -1.120826         0.332624
 H         2.377678        -0.042459         2.127167
 H         2.747578         2.636944         1.844859
 H         4.203653         1.882243         1.007727
 H         2.438899         2.188715        -2.179007
 H         4.133456         1.950428        -1.626962
 H         2.578655        -0.256739        -1.967352
