19
Iteration:  2321charge 0 multiplicity 1
 C        -0.090176         0.494519         0.030322
 C         1.368383         0.070826         0.012314
 O         1.913222        -1.310653         0.045830
 C         3.158450        -0.463358         0.101181
 C         2.477460         0.485664         1.077970
 C         2.968957         1.878363         1.181759
 O         2.763886         2.630196        -0.079562
 C         3.019677         1.780616        -1.326869
 C         2.606458         0.351691        -1.040797
 H        -0.564332         0.146352         0.889871
 H         0.051621         1.651420        -0.051407
 H        -0.745345         0.210731        -0.768443
 H         4.051015        -0.982897         0.081080
 H         2.229108         0.031986         2.024548
 H         2.236091         2.330303         1.981570
 H         3.908665         2.008938         1.657162
 H         2.533496         2.378799        -2.161570
 H         4.121571         1.738640        -1.638675
 H         2.482955        -0.258205        -1.998540
