19
Iteration:  1985
 C        -0.144177         0.475225         0.022709
 C         1.359452         0.166293         0.006319
 O         1.926228        -1.371374         0.010211
 C         3.085370        -0.476795         0.138739
 C         2.460481         0.518463         1.045620
 C         3.030396         1.899584         1.110596
 O         2.805543         2.605243        -0.053311
 C         2.989431         1.824191        -1.232643
 C         2.613259         0.324294        -1.077379
 H        -0.347773         0.020048         0.956436
 H        -0.312332         1.439293        -0.272013
 H        -0.585772        -0.066799        -0.821643
 H         3.994857        -0.884845         0.472811
 H         2.488267         0.156979         2.092085
 H         2.469604         2.572345         1.899617
 H         4.122534         1.803773         1.367443
 H         2.324001         2.375978        -1.924028
 H         4.048720         1.898640        -1.429908
 H         2.605385        -0.283469        -1.915312
