19
Iteration:  1438charge 0 multiplicity 1
 C         0.072485         0.374968         0.087880
 C         1.448824         0.108441        -0.016960
 O         1.840335        -1.266244         0.019069
 C         3.063473        -0.513198         0.042030
 C         2.465630         0.476948         1.057449
 C         2.901687         1.964115         1.170615
 O         2.820715         2.655852        -0.084236
 C         3.049956         1.733336        -1.148733
 C         2.457002         0.388699        -1.094041
 H        -0.346784         0.144624         1.075282
 H        -0.024177         1.394625        -0.174011
 H        -0.399291        -0.136833        -0.740247
 H         3.940428        -1.079548        -0.048940
 H         2.307522        -0.037218         2.049236
 H         2.327539         2.514731         1.917656
 H         3.988414         2.072707         1.394612
 H         2.861638         2.263469        -2.109074
 H         4.156668         1.720248        -1.453407
 H         2.345418         0.061770        -2.139625
