19
Iteration:   935
 C         0.098444         0.475049         0.095289
 C         1.501299         0.160591        -0.019836
 O         1.813606        -1.328514        -0.007531
 C         3.087332        -0.526458         0.072088
 C         2.396048         0.458317         1.123174
 C         2.939433         1.877958         1.155778
 O         2.739827         2.627169        -0.096107
 C         3.002529         1.852590        -1.286107
 C         2.578737         0.339651        -1.038451
 H        -0.301185         0.247989         1.147461
 H         0.092166         1.676458        -0.051932
 H        -0.515769        -0.091702        -0.548829
 H         4.112748        -1.020515         0.259256
 H         2.082751         0.092589         2.090876
 H         2.384102         2.428554         1.909208
 H         4.030056         1.878295         1.263603
 H         2.504756         2.111036        -2.152932
 H         4.144197         1.910828        -1.596770
 H         2.606755        -0.115136        -1.981821
