19
Iteration:  3424charge 0 multiplicity 1
 C        -0.065020         0.530471        -0.099636
 C         1.391600         0.165414         0.065018
 O         1.897813        -1.320910         0.194315
 C         3.144156        -0.487288         0.068631
 C         2.574912         0.453783         1.184818
 C         3.068373         1.954255         1.088473
 O         2.694003         2.548978        -0.162442
 C         2.998860         1.792883        -1.294716
 C         2.467978         0.311645        -1.007467
 H        -0.676561        -0.136752         0.579913
 H        -0.202324         1.533637         0.138326
 H        -0.315517         0.175699        -1.159172
 H         4.096545        -0.834054        -0.068108
 H         2.476010         0.053619         2.208751
 H         2.513041         2.477552         1.917435
 H         4.061612         2.114564         1.370975
 H         2.452266         2.271470        -2.188812
 H         4.122035         1.865735        -1.484338
 H         2.277845        -0.277177        -1.974197
