19
Iteration:  1186
 C        -0.124523         0.410619        -0.130599
 C         1.414242         0.197524         0.012686
 O         1.836912        -1.284831         0.120731
 C         3.128846        -0.504895        -0.000067
 C         2.609341         0.464538         1.126790
 C         3.088442         1.911664         1.217998
 O         2.758220         2.598472        -0.032873
 C         2.943459         1.793065        -1.200522
 C         2.523704         0.382855        -1.083331
 H        -0.797923         0.093403         0.609682
 H        -0.125237         1.473923        -0.121078
 H        -0.399830         0.127614        -1.097410
 H         4.092435        -1.111475        -0.036407
 H         2.452196        -0.008116         2.099651
 H         2.559185         2.309731         2.010243
 H         4.151821         1.943776         1.360863
 H         2.341456         2.208882        -2.002833
 H         4.006364         1.804675        -1.668129
 H         2.440253        -0.172467        -1.961719
