19
Iteration:  2606
 C        -0.041512         0.509911        -0.008529
 C         1.481231         0.176430        -0.063784
 O         1.931676        -1.320003         0.046443
 C         3.154693        -0.522558         0.082825
 C         2.504105         0.479498         1.134204
 C         3.031573         1.958807         1.214385
 O         2.704106         2.564441        -0.103143
 C         2.921119         1.738635        -1.220666
 C         2.545532         0.322700        -1.077099
 H        -0.550901         0.492469         0.942174
 H        -0.103083         1.576622        -0.133870
 H        -0.701676         0.111124        -0.779737
 H         4.053988        -1.000097         0.304699
 H         2.100198        -0.074202         2.027864
 H         2.340859         2.548647         1.984977
 H         4.096460         2.061039         1.567996
 H         2.462652         2.324975        -2.121752
 H         3.884181         1.884293        -1.682050
 H         2.335116        -0.252378        -2.033472
