19
Iteration:  4845charge 0 multiplicity 1
 C        -0.059834         0.518933        -0.086511
 C         1.407069         0.082675         0.006419
 O         1.882032        -1.387282         0.161031
 C         3.140115        -0.482803         0.173282
 C         2.488169         0.535080         1.121594
 C         3.101239         1.935100         1.077212
 O         2.709302         2.596942        -0.143041
 C         2.914224         1.819913        -1.289926
 C         2.543366         0.315628        -1.025983
 H        -0.513435         0.584820         0.872265
 H        -0.024068         1.573644        -0.449792
 H        -0.510871        -0.249621        -0.656490
 H         4.118830        -0.988131         0.379621
 H         2.476450         0.111250         2.091476
 H         2.800509         2.614977         1.974677
 H         4.203439         1.949643         1.245758
 H         2.418295         2.288445        -2.124124
 H         4.038001         1.746635        -1.421337
 H         2.359681        -0.135240        -2.004981
