19
Iteration:  4337charge 0 multiplicity 1
 C        -0.135210         0.347196         0.016298
 C         1.351743         0.077169         0.082629
 O         1.836614        -1.285801         0.160736
 C         3.115308        -0.503637         0.055730
 C         2.544804         0.545898         1.075230
 C         2.983024         1.986995         1.093442
 O         2.827625         2.651341        -0.135228
 C         3.116521         1.767910        -1.263140
 C         2.522419         0.375504        -1.069984
 H        -0.644351        -0.015526         0.926824
 H        -0.248403         1.320199        -0.265835
 H        -0.628844        -0.096572        -0.905141
 H         4.049248        -1.007802         0.021527
 H         2.499203        -0.050018         1.984135
 H         2.543808         2.559811         1.918149
 H         4.090798         2.003375         1.560445
 H         2.599016         2.307094        -2.071775
 H         4.186951         1.654936        -1.561996
 H         2.188052        -0.134215        -1.986799
