19
Iteration:  2566
 C         0.029217         0.426244        -0.154442
 C         1.428034         0.094126         0.065920
 O         1.824236        -1.324446         0.117880
 C         3.149420        -0.580116         0.083912
 C         2.571297         0.446039         1.136212
 C         3.087844         1.959663         1.160890
 O         2.697347         2.675885        -0.064894
 C         2.971002         1.833641        -1.216652
 C         2.401892         0.374520        -1.070488
 H        -0.593098         0.183484         0.798071
 H         0.051305         1.527259        -0.172871
 H        -0.217002        -0.109913        -1.125044
 H         4.244659        -1.040162        -0.096860
 H         2.224295         0.007015         2.122965
 H         2.633214         2.651144         1.899413
 H         4.161880         2.034610         1.096894
 H         2.436169         2.345048        -2.023856
 H         4.087283         1.787728        -1.493480
 H         2.201776        -0.109687        -2.002378
