19
Iteration:  1352charge 0 multiplicity 1
 C        -0.119126         0.472877        -0.035935
 C         1.382144         0.110997        -0.004326
 O         1.842427        -1.274341         0.117818
 C         3.191945        -0.575360         0.102558
 C         2.442337         0.462180         1.087352
 C         3.053314         1.851074         1.116534
 O         2.775915         2.599513        -0.060844
 C         2.939111         1.905157        -1.268991
 C         2.708497         0.407365        -1.051734
 H        -0.692972        -0.030886         0.929170
 H        -0.209874         1.591077         0.065648
 H        -0.741596         0.151087        -1.027262
 H         4.203609        -1.287195         0.138955
 H         2.248946        -0.022193         2.093899
 H         2.605425         2.387192         1.931967
 H         4.175028         1.756634         1.275462
 H         2.208336         2.237521        -2.078397
 H         3.938703         2.183052        -1.741593
 H         2.441407        -0.228177        -1.934573
