19
Iteration:   105
 C        -0.023941         0.448864        -0.067194
 C         1.482461         0.243517         0.046589
 O         1.779703        -1.221562         0.114755
 C         3.151348        -0.505863         0.027854
 C         2.534731         0.391711         1.127895
 C         3.052974         1.875523         1.164454
 O         2.734889         2.598677        -0.058535
 C         2.964994         1.821866        -1.292931
 C         2.521255         0.341560        -1.077099
 H        -0.428760        -0.254607         0.721762
 H        -0.332859         1.556760         0.097714
 H        -0.250858         0.077747        -1.084480
 H         4.066136        -1.075162         0.013592
 H         2.526090         0.006104         2.183727
 H         2.502382         2.318816         1.977787
 H         4.116422         1.750243         1.455139
 H         2.326349         2.223275        -2.062518
 H         4.036703         1.893037        -1.576850
 H         2.242215        -0.378706        -1.871304
