19
Iteration:  4182charge 0 multiplicity 1
 C        -0.103234         0.369992         0.075296
 C         1.377844         0.077672        -0.064808
 O         1.875106        -1.300656         0.082105
 C         3.105130        -0.499690         0.175955
 C         2.502628         0.484486         1.117667
 C         3.018696         1.981333         1.043062
 O         2.812331         2.646307        -0.162934
 C         3.054221         1.782874        -1.282157
 C         2.510643         0.355780        -1.044952
 H        -0.437078         0.214761         1.096330
 H        -0.236148         1.459584         0.175179
 H        -0.761023        -0.008561        -0.690300
 H         3.971472        -1.183828         0.298900
 H         2.132668         0.217670         2.095963
 H         2.503331         2.710235         1.676599
 H         4.115146         2.151012         1.454356
 H         2.769390         2.521632        -2.055964
 H         4.240654         1.602189        -1.173292
 H         2.358237        -0.296415        -1.926118
