19
Iteration:  4819
 C        -0.007918         0.396996        -0.065768
 C         1.441554         0.174062         0.015304
 O         1.813857        -1.266105         0.199495
 C         3.094461        -0.511206         0.165956
 C         2.475645         0.518365         1.093084
 C         3.055113         1.902449         1.045332
 O         2.777776         2.616552        -0.132529
 C         2.917898         1.776350        -1.283566
 C         2.608335         0.367262        -1.033817
 H        -0.525786         0.077885         0.924290
 H        -0.132110         1.464486        -0.075374
 H        -0.239894        -0.336586        -0.946682
 H         3.924443        -1.181915         0.302376
 H         2.415727         0.021668         2.144327
 H         2.740473         2.556899         1.884347
 H         4.049877         1.840256         1.216408
 H         2.139676         2.223290        -2.062871
 H         3.859340         1.882799        -1.709359
 H         2.525721        -0.092562        -2.076369
