19
Iteration:   668charge 0 multiplicity 1
 C        -0.118877         0.477955        -0.097092
 C         1.379883         0.117603         0.058177
 O         1.919223        -1.293106         0.150665
 C         3.171852        -0.484542        -0.010112
 C         2.540627         0.422755         1.143706
 C         2.998023         1.931299         1.173679
 O         2.761863         2.625710        -0.055230
 C         3.068656         1.793424        -1.264113
 C         2.413495         0.378180        -1.051256
 H        -0.783218        -0.111004         0.640810
 H        -0.077358         1.469220         0.041516
 H        -0.393289         0.290617        -1.249571
 H         4.032369        -1.055304        -0.213505
 H         2.605229        -0.151185         1.993444
 H         2.548703         2.409931         2.015671
 H         4.083760         1.929616         1.333328
 H         2.445077         2.251650        -1.924810
 H         4.122573         1.690908        -1.689407
 H         2.319809        -0.132711        -1.994450
