19
Iteration:  1302charge 0 multiplicity 1
 C        -0.097433         0.448772        -0.095997
 C         1.353606         0.095301         0.083384
 O         1.857145        -1.363500         0.106530
 C         3.083772        -0.493760        -0.030334
 C         2.624787         0.471754         1.150426
 C         3.015232         1.935375         1.153441
 O         2.770186         2.668904        -0.077606
 C         3.067368         1.789849        -1.174655
 C         2.492461         0.395566        -1.057495
 H        -0.694506        -0.041064         0.619127
 H        -0.190945         1.529576         0.015663
 H        -0.407083         0.252693        -1.096979
 H         3.941419        -1.107080        -0.091007
 H         2.528921        -0.096742         2.078117
 H         2.390616         2.430340         1.976474
 H         4.060574         2.035237         1.255102
 H         2.653095         2.244873        -2.092643
 H         4.168258         1.836834        -1.539454
 H         2.280215        -0.134854        -2.018650
