19
Iteration:    29
 C        -0.101172         0.386110        -0.015899
 C         1.455122         0.194519         0.030905
 O         1.816664        -1.183910         0.116138
 C         3.108981        -0.484135        -0.060382
 C         2.638919         0.454673         1.135355
 C         2.961907         1.919735         1.227053
 O         2.773949         2.521998        -0.061925
 C         3.108798         1.767914        -1.269068
 C         2.446905         0.418291        -1.118047
 H        -0.413793         0.067229         1.011957
 H        -0.341817         1.468929        -0.367577
 H        -0.570406        -0.365786        -0.770681
 H         3.989567        -1.090601        -0.255681
 H         2.400321        -0.019248         2.132659
 H         2.321115         2.349843         2.017032
 H         3.996512         2.074750         1.644178
 H         2.585086         2.285803        -2.070415
 H         4.227975         1.591241        -1.417433
 H         2.169522        -0.100949        -2.041759
