19
Iteration:  2945
 C        -0.080465         0.370236         0.021896
 C         1.352759         0.091828        -0.115939
 O         1.867963        -1.334714         0.101601
 C         3.055032        -0.489409         0.155422
 C         2.499805         0.537787         1.093080
 C         3.115610         1.928315         1.090492
 O         2.774309         2.672687        -0.102338
 C         2.999008         1.819186        -1.259177
 C         2.519895         0.385903        -1.023930
 H        -0.276270         0.021600         1.128299
 H        -0.329901         1.383479        -0.214108
 H        -0.546283        -0.397635        -0.761931
 H         4.054957        -1.003098         0.350144
 H         2.383433         0.135320         2.085960
 H         2.760559         2.548280         1.910122
 H         4.278241         1.815347         1.223786
 H         2.446777         2.318184        -1.959011
 H         4.107531         1.781405        -1.461554
 H         2.545569        -0.181824        -1.927638
