19
Iteration:  4263
 C         0.023864         0.523824        -0.096075
 C         1.425038         0.117165         0.082891
 O         1.899491        -1.312899         0.192531
 C         3.169927        -0.576201         0.064131
 C         2.528042         0.516458         1.134460
 C         3.009983         1.908903         1.096873
 O         2.684334         2.635566        -0.126001
 C         2.963920         1.762860        -1.259718
 C         2.468984         0.375644        -1.060086
 H        -0.608333         0.103518         0.733956
 H         0.058182         1.627888        -0.228622
 H        -0.539470         0.114027        -1.001303
 H         4.015708        -1.210150         0.205953
 H         2.354284         0.212972         2.225466
 H         2.532183         2.495457         1.891982
 H         4.088462         1.748830         1.243259
 H         2.555232         2.242533        -2.144160
 H         4.069997         1.709172        -1.639457
 H         2.299524        -0.199207        -1.988299
