19
Iteration:   252
 C        -0.091520         0.495381        -0.032816
 C         1.435848         0.153208         0.025204
 O         1.892367        -1.345077         0.073101
 C         3.123845        -0.453231         0.036769
 C         2.547409         0.488796         1.079708
 C         3.021999         1.934534         1.132370
 O         2.831648         2.550057        -0.052363
 C         3.009284         1.777924        -1.174767
 C         2.375286         0.382170        -1.076035
 H        -0.583842         0.066517         0.829927
 H        -0.214924         1.598439        -0.114429
 H        -0.334144        -0.181353        -0.997128
 H         4.174447        -0.893157         0.075428
 H         2.390390         0.087638         2.102928
 H         2.356075         2.360020         1.956461
 H         4.063392         1.870817         1.518514
 H         2.564939         2.355823        -2.026924
 H         4.023725         1.592412        -1.516788
 H         2.157641         0.067017        -2.135469
