19
Iteration:  4726
 C        -0.058920         0.415589         0.143558
 C         1.442546         0.228843        -0.039930
 O         1.830598        -1.303153         0.083706
 C         3.126611        -0.529210         0.132542
 C         2.466134         0.526766         1.086155
 C         2.898647         1.949808         1.090450
 O         2.784739         2.599721        -0.151741
 C         3.100457         1.700754        -1.321973
 C         2.621747         0.386665        -1.045866
 H        -0.551616         0.026380         1.031449
 H        -0.533199         1.479013         0.308890
 H        -0.497220        -0.129980        -0.664556
 H         4.153366        -1.039580         0.122277
 H         2.341713         0.140603         2.074085
 H         2.279675         2.499748         1.747689
 H         3.840467         2.028831         1.449180
 H         2.656006         2.160368        -2.176374
 H         4.172101         1.786227        -1.588438
 H         2.375330        -0.294793        -1.852017
