19
Iteration:  1766
 C        -0.013757         0.451846         0.128916
 C         1.397582         0.115629        -0.052175
 O         1.822381        -1.317188         0.067952
 C         3.131047        -0.461775         0.109977
 C         2.517881         0.418397         1.086024
 C         2.875399         1.860876         1.087071
 O         2.767718         2.589276        -0.089589
 C         3.116625         1.890061        -1.257106
 C         2.577146         0.380548        -1.109028
 H        -0.344414         0.499684         1.147418
 H        -0.080847         1.444192        -0.131418
 H        -0.669738        -0.124290        -0.576773
 H         3.982261        -1.015562         0.116375
 H         2.356716         0.066468         2.139638
 H         2.040231         2.340294         1.748050
 H         3.945126         1.957591         1.539208
 H         2.763073         2.474450        -2.160244
 H         4.174432         1.870556        -1.481562
 H         2.414370        -0.186355        -2.014240
