19
Iteration:  2767charge 0 multiplicity 1
 C        -0.113860         0.465414        -0.106638
 C         1.443033         0.103816         0.065484
 O         1.909140        -1.268896         0.138743
 C         3.111990        -0.499579         0.075538
 C         2.615806         0.466958         1.159785
 C         3.035938         1.891760         1.095436
 O         2.717872         2.646100        -0.082353
 C         2.931511         1.774606        -1.258888
 C         2.519533         0.328851        -1.059456
 H        -0.715980         0.307334         0.824175
 H        -0.032113         1.630051        -0.360472
 H        -0.620257        -0.092395        -0.945363
 H         4.198801        -0.894632        -0.048761
 H         2.613503        -0.058247         2.119532
 H         2.463109         2.433684         1.816819
 H         4.045069         2.037984         1.552354
 H         2.474038         2.330978        -2.038196
 H         4.016050         1.742075        -1.597499
 H         2.243863        -0.303686        -1.967518
