19
Iteration:  3523
 C        -0.011573         0.354010         0.037771
 C         1.410808         0.083465         0.062771
 O         1.886608        -1.299643         0.200864
 C         3.053403        -0.455508         0.011312
 C         2.476501         0.560521         1.038483
 C         3.011042         1.998717         1.119469
 O         2.787867         2.618225        -0.127355
 C         3.153249         1.775022        -1.231261
 C         2.350782         0.324415        -1.129037
 H        -0.504504         0.450056         1.019551
 H         0.008723         1.377840        -0.450683
 H        -0.503795        -0.421612        -0.623078
 H         4.009169        -0.895935         0.033367
 H         2.236159        -0.051611         1.932388
 H         2.412097         2.567931         1.949609
 H         4.161356         2.094890         1.450633
 H         2.865881         2.336841        -2.173661
 H         4.261297         1.626955        -1.251794
 H         2.174784        -0.318307        -2.067146
