19
Iteration:   770charge 0 multiplicity 1
 C         0.020316         0.419319        -0.038804
 C         1.422227         0.142866         0.059594
 O         1.817558        -1.321068         0.125160
 C         3.085545        -0.528874         0.003946
 C         2.627959         0.517841         1.047316
 C         2.947077         1.929720         1.201103
 O         2.806213         2.584276        -0.064700
 C         3.005052         1.851903        -1.205499
 C         2.451762         0.380701        -1.111210
 H        -0.608668         0.122345         0.760979
 H        -0.078943         1.623051        -0.266101
 H        -0.262069        -0.200025        -0.898556
 H         4.142322        -1.085584        -0.050116
 H         2.470617        -0.064241         2.028125
 H         2.169817         2.290316         1.933651
 H         4.029232         2.023313         1.473726
 H         2.490934         2.345171        -1.999281
 H         4.121880         1.826518        -1.446425
 H         2.071891        -0.102772        -2.069000
