19
Iteration:  1536
 C        -0.153561         0.454029        -0.047981
 C         1.466918         0.191951         0.033022
 O         1.853344        -1.325045         0.129491
 C         3.134727        -0.463017         0.044602
 C         2.571880         0.420384         1.076766
 C         3.056176         1.860215         1.153806
 O         2.697431         2.578725        -0.058903
 C         3.034595         1.813071        -1.218964
 C         2.557316         0.418939        -1.079533
 H        -0.769884        -0.048476         0.754483
 H        -0.357860         1.574744        -0.204662
 H        -0.411262         0.091834        -1.054840
 H         4.008124        -1.029341         0.204831
 H         2.270620        -0.062823         2.046488
 H         2.550222         2.504168         1.934270
 H         4.184187         1.926688         1.114368
 H         2.402570         2.267706        -2.086231
 H         4.138328         2.056828        -1.446473
 H         2.402371        -0.138659        -2.018828
