19
Iteration:   717charge 0 multiplicity 1
 C        -0.068853         0.417387         0.129139
 C         1.407029         0.123151         0.011970
 O         1.848275        -1.296299        -0.000534
 C         3.088520        -0.536199         0.063039
 C         2.407200         0.444598         1.097782
 C         2.996317         1.896721         1.118921
 O         2.706528         2.644915        -0.136572
 C         3.096531         1.862906        -1.205059
 C         2.666509         0.396154        -1.095618
 H        -0.192796         0.149920         1.137448
 H        -0.119089         1.614621         0.002951
 H        -0.683504        -0.128690        -0.444615
 H         4.060380        -1.189069         0.096081
 H         2.084771         0.015943         2.173684
 H         2.507315         2.344909         2.051098
 H         4.071920         1.890838         1.221706
 H         2.706615         2.249765        -2.240072
 H         4.213975         1.775409        -1.187943
 H         2.595187        -0.005299        -2.158300
