19
Iteration:  1618
 C         0.039774         0.412916         0.009699
 C         1.447701         0.121076         0.008703
 O         1.860241        -1.267588         0.053698
 C         3.090234        -0.447992        -0.064167
 C         2.487514         0.501765         1.075707
 C         2.917450         1.975985         1.210403
 O         2.852386         2.587962        -0.060500
 C         3.018934         1.752870        -1.189123
 C         2.420439         0.384965        -1.097408
 H        -0.398029         0.104886         0.925310
 H        -0.369216         1.423480        -0.058620
 H        -0.352922        -0.288300        -0.695534
 H         4.003134        -1.169139        -0.153322
 H         2.503591        -0.088542         1.966451
 H         2.295940         2.485623         1.907454
 H         3.886061         2.111558         1.886829
 H         2.738830         2.211075        -2.109850
 H         4.189215         1.538818        -1.168030
 H         2.283109        -0.317095        -1.934657
