19
Iteration:  3520
 C        -0.028594         0.384458         0.026932
 C         1.399674         0.085349         0.049157
 O         1.881347        -1.304934         0.208043
 C         3.073592        -0.453289         0.005786
 C         2.485080         0.535550         1.024088
 C         3.013001         1.991915         1.125317
 O         2.780418         2.614765        -0.138604
 C         3.153813         1.780384        -1.211604
 C         2.364645         0.334037        -1.130454
 H        -0.523696         0.391876         1.022867
 H        -0.129070         1.317546        -0.360042
 H        -0.506197        -0.444268        -0.574200
 H         4.150121        -0.866916         0.145919
 H         2.359733         0.003765         1.948565
 H         2.502638         2.613016         1.879023
 H         4.064479         2.132867         1.506415
 H         2.881232         2.299014        -2.146485
 H         4.189617         1.539156        -1.269187
 H         2.131492        -0.291766        -2.027369
