19
Iteration:  1990
 C        -0.099833         0.452034        -0.009879
 C         1.387792         0.169060        -0.004450
 O         1.931458        -1.349075         0.047273
 C         3.083167        -0.477985         0.133778
 C         2.430927         0.536837         1.044455
 C         3.012097         1.869236         1.179270
 O         2.827638         2.616178        -0.085166
 C         2.965273         1.799498        -1.242428
 C         2.609815         0.361344        -1.074709
 H        -0.478026        -0.035496         0.971222
 H        -0.241007         1.615244        -0.193073
 H        -0.730201        -0.040118        -0.803758
 H         4.156836        -0.913512         0.346758
 H         2.332341         0.027751         2.047143
 H         2.619761         2.419329         2.057520
 H         4.072934         1.825514         1.421371
 H         2.186683         2.239177        -1.947852
 H         4.017883         1.927156        -1.664364
 H         2.495813        -0.307650        -2.036027
