19
Iteration:  3652charge 0 multiplicity 1
 C        -0.046266         0.415285         0.070932
 C         1.483912         0.179971        -0.029533
 O         1.836817        -1.246032         0.154259
 C         3.129744        -0.510642         0.146187
 C         2.504948         0.463669         1.112769
 C         2.989457         1.966077         1.024314
 O         2.679759         2.598052        -0.149774
 C         3.081195         1.763155        -1.261576
 C         2.510481         0.353291        -1.099125
 H        -0.357852        -0.216749         1.008032
 H        -0.084622         1.465265         0.281515
 H        -0.615445         0.165603        -0.965793
 H         3.912256        -1.446243         0.388002
 H         2.358363         0.025023         2.082980
 H         2.539340         2.577532         1.860813
 H         4.137547         2.002245         1.267407
 H         2.692365         2.288064        -2.202960
 H         4.247112         1.723807        -1.407139
 H         2.304980        -0.231091        -2.046975
