19
Iteration:  1566
 C        -0.006313         0.443671         0.117277
 C         1.445697         0.107708        -0.052342
 O         1.872984        -1.356387        -0.014139
 C         3.116749        -0.450113         0.058804
 C         2.423526         0.489343         1.048071
 C         2.922841         1.921196         1.138958
 O         2.779884         2.634384        -0.050934
 C         3.088398         1.774423        -1.217081
 C         2.537850         0.373585        -1.076365
 H        -0.397245         0.318698         1.094765
 H        -0.090574         1.656894        -0.117618
 H        -0.644103        -0.079479        -0.538656
 H         4.040437        -1.090473         0.177231
 H         2.092582         0.148833         2.008453
 H         2.556986         2.537988         2.087743
 H         3.972191         1.893445         1.315538
 H         2.388530         2.155450        -1.995899
 H         4.121471         1.868279        -1.298333
 H         2.416514        -0.226818        -1.999011
