19
Iteration:  2488charge 0 multiplicity 1
 C        -0.188347         0.418036         0.034756
 C         1.343794         0.067702         0.051835
 O         1.882853        -1.336519         0.022947
 C         3.197114        -0.511913         0.003975
 C         2.501288         0.491564         1.098532
 C         2.911736         1.968817         1.192591
 O         2.876436         2.678654        -0.114686
 C         3.062751         1.796476        -1.230883
 C         2.560779         0.374751        -1.046631
 H        -0.550237        -0.105215         1.006310
 H        -0.315722         1.489967         0.185915
 H        -0.742922        -0.073423        -0.848522
 H         4.158566        -1.232743        -0.157823
 H         2.494179         0.090793         2.168647
 H         2.242728         2.621240         1.873123
 H         3.904104         2.208089         1.564711
 H         2.737282         2.284964        -2.172818
 H         4.101469         1.715746        -1.529433
 H         2.401977        -0.186720        -1.967556
