19
Iteration:   230
 C        -0.123589         0.491596         0.008618
 C         1.374825         0.103017         0.050312
 O         1.960239        -1.289161         0.110333
 C         3.096610        -0.454377        -0.082767
 C         2.472550         0.433324         1.120569
 C         2.990553         1.962807         1.241455
 O         2.812542         2.592890        -0.075229
 C         3.099310         1.759795        -1.260647
 C         2.405060         0.370219        -1.094062
 H        -0.692137         0.493729         0.934374
 H         0.073001         1.576007        -0.276016
 H        -0.631241        -0.215820        -0.873426
 H         4.141918        -0.862159        -0.279307
 H         2.614008        -0.235261         1.982523
 H         2.331711         2.434626         2.055135
 H         4.038286         1.870359         1.608286
 H         2.860177         2.353059        -2.185792
 H         4.168074         1.519971        -1.380887
 H         2.192819        -0.238443        -2.037502
