19
Iteration:  2296
 C        -0.031109         0.438260         0.095845
 C         1.392249         0.131920        -0.070682
 O         1.906675        -1.317964         0.054636
 C         3.094652        -0.487280         0.071492
 C         2.419342         0.498807         1.101781
 C         2.873263         1.908129         1.169219
 O         2.825496         2.581060        -0.131755
 C         3.103477         1.810970        -1.252644
 C         2.580800         0.404191        -1.040383
 H        -0.230399        -0.011914         1.135021
 H        -0.293601         1.490446        -0.096814
 H        -0.744211        -0.129002        -0.549191
 H         3.972884        -1.101859        -0.005398
 H         2.181580         0.041194         2.076024
 H         2.339080         2.590571         1.974784
 H         3.859219         1.913188         1.523932
 H         2.535409         2.404477        -2.120168
 H         4.129401         1.717354        -1.619623
 H         2.593443        -0.033536        -2.076008
