19
Iteration:  2877charge 0 multiplicity 1
 C        -0.109246         0.430905        -0.002418
 C         1.402906         0.054652         0.114107
 O         1.916947        -1.317807         0.156590
 C         3.088949        -0.476498         0.014712
 C         2.534501         0.514763         1.026017
 C         2.942915         1.997323         1.169874
 O         2.871476         2.612604        -0.111181
 C         3.007116         1.832229        -1.285353
 C         2.537314         0.321077        -1.073435
 H        -0.776973        -0.157040         0.739406
 H        -0.403868         1.559859         0.078305
 H        -0.550087         0.162583        -1.053309
 H         4.045405        -1.112829        -0.000511
 H         2.590445         0.003607         1.990910
 H         2.289010         2.507212         1.850614
 H         4.011819         2.005145         1.659980
 H         2.248834         2.170107        -1.962820
 H         4.054155         1.743386        -1.610616
 H         2.277456        -0.140332        -2.070153
