19
Iteration:   254charge 0 multiplicity 1
 C        -0.073635         0.490802        -0.028486
 C         1.431461         0.154409         0.016484
 O         1.878144        -1.348064         0.078580
 C         3.112588        -0.466431         0.052495
 C         2.538890         0.476270         1.076720
 C         3.030999         1.932059         1.135704
 O         2.830665         2.564465        -0.055923
 C         3.003981         1.791478        -1.191935
 C         2.392382         0.393878        -1.073723
 H        -0.605261         0.054060         0.823134
 H        -0.215366         1.529932        -0.084596
 H        -0.327178        -0.186480        -1.006061
 H         4.213761        -0.902781         0.096619
 H         2.425035         0.038508         2.110874
 H         2.355189         2.349555         1.965783
 H         4.078320         1.894210         1.519286
 H         2.535042         2.412228        -2.067905
 H         4.043064         1.614604        -1.518419
 H         2.163481         0.014346        -2.138845
