19
Iteration:  2112
 C        -0.066472         0.344467         0.072115
 C         1.371131         0.125604         0.026469
 O         1.808659        -1.301731        -0.016343
 C         3.089314        -0.511013         0.044380
 C         2.516611         0.512867         1.118501
 C         3.037147         1.947601         1.107918
 O         2.710131         2.674760        -0.103727
 C         3.148731         1.821138        -1.160036
 C         2.555032         0.328805        -1.071197
 H        -0.575974        -0.009774         0.965962
 H        -0.225839         1.485291        -0.174017
 H        -0.439561        -0.301294        -0.721006
 H         4.016552        -1.079115         0.004669
 H         2.117717         0.214512         2.077872
 H         2.607069         2.546770         1.902208
 H         4.073283         2.067644         1.424947
 H         2.931944         2.254995        -2.130620
 H         4.252415         1.836009        -1.130593
 H         2.364819        -0.264158        -2.052005
