19
Iteration:    57charge 0 multiplicity 1
 C        -0.109561         0.491376         0.075693
 C         1.400469         0.051972         0.042392
 O         1.844555        -1.440677         0.019938
 C         3.096309        -0.486035         0.053682
 C         2.488232         0.482355         1.021493
 C         2.998226         1.934319         1.077327
 O         2.824176         2.761788        -0.047786
 C         3.090363         1.837502        -1.182120
 C         2.503942         0.342010        -1.066075
 H        -0.506735         0.299054         1.031785
 H        -0.200418         1.470455        -0.146372
 H        -0.539251        -0.249310        -0.699638
 H         4.211473        -0.886764         0.152001
 H         2.216917         0.124563         2.106288
 H         2.610677         2.303826         2.051389
 H         4.068735         1.707688         1.220602
 H         2.572064         2.234094        -2.118394
 H         4.125528         1.695362        -1.367423
 H         2.370115        -0.125281        -2.147324
