19
Iteration:  1944charge 0 multiplicity 1
 C         0.015217         0.423333         0.009554
 C         1.478654         0.185620         0.068851
 O         1.806722        -1.283691         0.126877
 C         3.096642        -0.498494        -0.017149
 C         2.537372         0.499079         1.077189
 C         2.946850         1.923874         1.091872
 O         2.686239         2.575710        -0.080846
 C         3.151262         1.796563        -1.151797
 C         2.481765         0.382211        -1.145765
 H        -0.602472         0.101273         0.943487
 H        -0.332080         1.378757        -0.306539
 H        -0.396476        -0.348869        -0.734806
 H         3.977338        -1.066075        -0.049311
 H         2.459315        -0.057475         2.062816
 H         2.363125         2.386517         1.977299
 H         3.960718         2.051402         1.392553
 H         2.962937         2.367451        -2.147932
 H         4.248427         1.631014        -1.026382
 H         2.221099        -0.107844        -2.132852
