19
Iteration:  3972charge 0 multiplicity 1
 C        -0.080888         0.372414         0.000835
 C         1.413512         0.142420         0.017418
 O         1.874465        -1.293232         0.117024
 C         3.088924        -0.510576         0.152544
 C         2.495285         0.556078         1.119235
 C         3.005925         1.930908         1.109571
 O         2.837061         2.653022        -0.161230
 C         2.993806         1.783173        -1.283839
 C         2.515933         0.312207        -1.078621
 H        -0.458550         0.100997         0.984430
 H        -0.137979         1.611512         0.053181
 H        -0.504740        -0.107543        -0.855818
 H         3.998314        -1.133930         0.445011
 H         2.260471         0.353386         2.092631
 H         2.498626         2.410755         1.873762
 H         4.146789         1.893936         1.214783
 H         2.322945         2.171702        -2.088902
 H         4.010266         1.839506        -1.666250
 H         2.536490        -0.383740        -1.886011
