19
Iteration:  4026
 C        -0.006620         0.501350         0.024335
 C         1.397798         0.070318         0.074150
 O         1.861251        -1.347614         0.193591
 C         3.141646        -0.567956        -0.016012
 C         2.528704         0.497297         1.046987
 C         2.948695         2.050242         1.104202
 O         2.714352         2.653894        -0.181484
 C         3.078808         1.725586        -1.199682
 C         2.492834         0.350725        -1.057949
 H        -0.505333         0.164717         0.918997
 H         0.049121         1.675440         0.059151
 H        -0.563780         0.127331        -0.793910
 H         4.105982        -1.183441         0.080851
 H         2.421875         0.110132         2.007490
 H         2.217830         2.516294         1.771587
 H         4.040363         2.151192         1.375946
 H         2.798942         2.149836        -2.172583
 H         4.118931         1.573301        -1.246731
 H         2.366403        -0.166643        -1.999651
