19
Iteration:  1825charge 0 multiplicity 1
 C        -0.081288         0.341622        -0.076945
 C         1.402268         0.150026         0.132812
 O         1.864606        -1.286374         0.158338
 C         3.102204        -0.461341        -0.006639
 C         2.456251         0.460963         1.118662
 C         3.053955         1.885648         1.123718
 O         2.775315         2.629958        -0.099165
 C         3.076919         1.829149        -1.235486
 C         2.500818         0.453018        -1.057783
 H        -0.880976        -0.118840         0.603810
 H        -0.284511         1.406042        -0.332422
 H        -0.294664        -0.213365        -1.022168
 H         4.037901        -1.123827        -0.284090
 H         2.407454         0.038708         2.119196
 H         2.746860         2.472544         1.965007
 H         4.186720         1.737409         1.327083
 H         2.598805         2.376342        -2.031416
 H         4.177577         1.641193        -1.328101
 H         2.177131        -0.065803        -2.028694
