19
Iteration:  2149charge 0 multiplicity 1
 C        -0.098731         0.494510        -0.084706
 C         1.448327         0.142299         0.018077
 O         1.895067        -1.337779         0.139319
 C         3.098817        -0.484891         0.034853
 C         2.603482         0.507402         1.085269
 C         3.035519         1.946455         1.224709
 O         2.705114         2.552614        -0.045016
 C         3.020215         1.796596        -1.234608
 C         2.493356         0.319487        -1.136924
 H        -0.760621         0.271591         0.816678
 H        -0.148503         1.641459        -0.310264
 H        -0.613659         0.160062        -1.061497
 H         4.175228        -1.001481        -0.165304
 H         2.325105         0.113464         2.083458
 H         2.283696         2.307400         1.927835
 H         4.045635         2.120436         1.520239
 H         2.596827         2.407217        -2.039108
 H         4.128365         1.725098        -1.272662
 H         2.400275        -0.299178        -1.976445
