19
Iteration:  2097
 C        -0.154900         0.350795         0.053405
 C         1.391950         0.131273        -0.100057
 O         1.860948        -1.335022        -0.021555
 C         3.074032        -0.526898         0.135905
 C         2.471555         0.483961         1.086212
 C         3.067648         2.048163         1.152227
 O         2.753286         2.588447        -0.094641
 C         3.145610         1.778693        -1.203063
 C         2.560135         0.459573        -1.052733
 H        -0.353988         0.152131         1.145114
 H        -0.449060         1.312101         0.191281
 H        -0.820478        -0.202995        -0.613022
 H         3.982322        -1.032399         0.335528
 H         2.442348         0.002604         2.109844
 H         2.351098         2.557076         1.931497
 H         4.194018         2.004797         1.259170
 H         2.658288         2.357553        -2.078101
 H         4.233748         1.687041        -1.363309
 H         2.506668        -0.048501        -2.022598
