19
Iteration:  3169charge 0 multiplicity 1
 C        -0.066022         0.427200         0.030789
 C         1.392526         0.045373        -0.000988
 O         1.894674        -1.270532         0.100485
 C         3.114121        -0.559851         0.075612
 C         2.507067         0.538889         1.027753
 C         3.001410         2.031479         1.143949
 O         2.793623         2.649157        -0.095807
 C         2.994059         1.726579        -1.242555
 C         2.552975         0.303965        -1.059744
 H        -0.363931         0.385034         1.108905
 H        -0.175886         1.637304        -0.310089
 H        -0.742950        -0.255850        -0.528759
 H         3.976611        -1.095363         0.194122
 H         2.198043         0.065749         1.963090
 H         2.426404         2.723766         1.890985
 H         4.138567         2.149605         1.470086
 H         2.334363         2.258256        -1.994125
 H         4.015286         1.816684        -1.717984
 H         2.476516        -0.357797        -1.942679
