19
Iteration:   931
 C         0.082428         0.486201         0.133671
 C         1.471397         0.150610        -0.035112
 O         1.834152        -1.330363        -0.010455
 C         3.130469        -0.534487         0.078824
 C         2.405037         0.480486         1.068129
 C         2.903657         1.868128         1.150612
 O         2.740305         2.619330        -0.095833
 C         3.070205         1.828241        -1.260399
 C         2.517948         0.353058        -1.020418
 H        -0.245011         0.350398         1.113141
 H         0.100240         1.629947        -0.043716
 H        -0.576038        -0.073129        -0.572532
 H         4.144927        -1.111920         0.281798
 H         2.078749         0.106701         2.101743
 H         2.376839         2.518973         1.899909
 H         4.007202         1.847155         1.207658
 H         2.332267         2.174287        -2.195352
 H         4.163403         2.034465        -1.526585
 H         2.694578        -0.139591        -2.045210
