19
Iteration:  1911charge 0 multiplicity 1
 C        -0.061699         0.490686        -0.023048
 C         1.427464         0.073017         0.022195
 O         1.881319        -1.315117         0.078892
 C         3.122570        -0.474235         0.041290
 C         2.509494         0.477686         1.144374
 C         2.949258         1.926849         1.140301
 O         2.755011         2.629984        -0.087168
 C         3.035201         1.762309        -1.212598
 C         2.546959         0.358386        -1.098043
 H        -0.472480         0.094688         0.986738
 H        -0.055943         1.542520        -0.048819
 H        -0.676498         0.165164        -0.934491
 H         4.012395        -1.011469        -0.035008
 H         2.536616        -0.048345         2.170776
 H         2.351127         2.512754         1.925114
 H         4.007861         1.980567         1.323460
 H         2.515987         2.329281        -2.088841
 H         4.141542         1.794945        -1.388806
 H         2.352783        -0.224955        -2.043479
