19
Iteration:  3957
 C        -0.135941         0.412770        -0.055698
 C         1.371106         0.135944         0.024110
 O         1.899071        -1.359153         0.213363
 C         3.126356        -0.541935         0.161922
 C         2.489667         0.538808         1.057618
 C         3.112621         1.969351         1.055501
 O         2.839065         2.670798        -0.123035
 C         2.967340         1.794877        -1.271140
 C         2.501938         0.359076        -1.043380
 H        -0.762430        -0.033663         0.737155
 H        -0.468418         1.421531        -0.208416
 H        -0.532793        -0.177530        -0.918579
 H         4.138830        -1.017052         0.220376
 H         2.349501        -0.059498         2.045620
 H         2.487485         2.643656         1.820059
 H         4.270100         1.866271         1.338249
 H         2.511597         2.292407        -2.139774
 H         3.986489         1.721948        -1.517148
 H         2.262858        -0.117555        -2.056834
