19
Iteration:  1681
 C         0.004391         0.397537        -0.046015
 C         1.404046         0.223422        -0.027787
 O         1.853700        -1.302275         0.003264
 C         3.082778        -0.531440         0.185628
 C         2.441360         0.504963         1.077686
 C         3.220236         1.904556         1.132917
 O         2.717954         2.587640        -0.059353
 C         2.931315         1.823748        -1.224467
 C         2.531190         0.397889        -1.011325
 H        -0.325527        -0.507736         0.694170
 H        -0.250590         1.386837         0.110211
 H        -0.375114         0.074139        -1.148008
 H         3.868998        -1.181689         0.491831
 H         2.060844         0.029694         2.038587
 H         2.823782         2.548466         1.892447
 H         4.290600         1.922952         1.123316
 H         2.285494         2.292641        -2.003509
 H         3.988777         1.846753        -1.452897
 H         2.347122        -0.071442        -1.980495
