19
Iteration:  4981
 C        -0.046453         0.356044        -0.107964
 C         1.463242         0.143344         0.021227
 O         1.822224        -1.270357         0.170982
 C         3.086076        -0.580811         0.121276
 C         2.563482         0.530995         1.096263
 C         3.079043         2.035228         1.149589
 O         2.838891         2.646743        -0.162970
 C         2.953860         1.729815        -1.295764
 C         2.458480         0.376593        -0.996636
 H        -0.420830        -0.383947         0.685423
 H        -0.423673         1.232868         0.387249
 H        -0.476816         0.084915        -1.124312
 H         4.004320        -1.185647         0.232819
 H         2.268494         0.199951         2.148679
 H         2.438765         2.721891         1.919284
 H         4.125626         2.001369         1.360938
 H         2.249158         2.332695        -1.919279
 H         3.957991         1.433954        -1.737699
 H         2.257526         0.000490        -2.029457
