19
Iteration:  2124charge 0 multiplicity 1
 C        -0.019752         0.361084        -0.003290
 C         1.483049         0.145605         0.096428
 O         1.804114        -1.267659         0.106891
 C         3.116883        -0.528891        -0.003935
 C         2.466565         0.459038         1.081660
 C         2.939792         1.910169         1.110274
 O         2.705903         2.662554        -0.096846
 C         3.128044         1.789374        -1.199948
 C         2.537828         0.436659        -1.075550
 H        -0.514338         0.142444         0.934953
 H        -0.312512         1.519826        -0.243199
 H        -0.463928        -0.164346        -0.867025
 H         4.102823        -1.130558        -0.001379
 H         2.526789         0.008221         2.064199
 H         2.503217         2.406457         1.911485
 H         3.998682         1.731022         1.094228
 H         2.879818         2.324775        -2.066197
 H         4.218578         1.601926        -1.082311
 H         2.311648        -0.078508        -2.063693
