19
Iteration:  4443
 C        -0.110761         0.534134        -0.150555
 C         1.425474         0.130082         0.084096
 O         1.868929        -1.326974         0.198250
 C         3.186072        -0.382986         0.106391
 C         2.596099         0.471884         1.088648
 C         3.071090         1.906517         1.097326
 O         2.664752         2.551964        -0.145589
 C         3.032046         1.788320        -1.244684
 C         2.469262         0.303920        -1.038973
 H        -0.573752         0.259482         0.786074
 H        -0.097617         1.635707         0.042029
 H        -0.579043        -0.033104        -0.925293
 H         4.138064        -1.009160         0.280891
 H         2.374641        -0.016122         2.023144
 H         2.494112         2.464030         1.898582
 H         4.237129         1.906241         1.186786
 H         2.472399         2.253590        -2.135151
 H         4.058643         1.758049        -1.486416
 H         2.149529        -0.291475        -1.910685
