19
Iteration:  4565charge 0 multiplicity 1
 C        -0.105009         0.381944         0.059344
 C         1.422626         0.200701         0.061227
 O         1.882198        -1.339487         0.162192
 C         3.020722        -0.558390         0.044005
 C         2.591854         0.535540         1.058916
 C         2.902759         2.029322         1.173500
 O         2.841950         2.610271        -0.164020
 C         3.106504         1.781477        -1.281435
 C         2.483914         0.356118        -1.102561
 H        -0.565189        -0.297714         0.773138
 H        -0.307865         1.394823         0.154073
 H        -0.393663        -0.161313        -0.819965
 H         4.035271        -1.010837        -0.093642
 H         2.356418         0.163451         2.070221
 H         2.189694         2.446253         1.943998
 H         3.913494         2.294924         1.549333
 H         2.804704         2.292514        -2.245748
 H         4.237409         1.755414        -1.668145
 H         2.310769        -0.377386        -1.881393
