19
Iteration:  4299charge 0 multiplicity 1
 C        -0.073968         0.409409        -0.042584
 C         1.442883         0.124763        -0.000241
 O         1.871839        -1.251010         0.111597
 C         3.133427        -0.459693         0.154817
 C         2.472167         0.536154         1.098319
 C         3.055784         1.924795         1.111438
 O         2.753230         2.586321        -0.082688
 C         2.952096         1.715428        -1.324712
 C         2.575827         0.356014        -1.052415
 H        -0.487375         0.264815         0.977087
 H        -0.187980         1.628861        -0.050745
 H        -0.546048        -0.117793        -0.863706
 H         3.995764        -1.235333         0.330009
 H         2.146768         0.256901         2.122777
 H         2.848568         2.577880         2.086657
 H         4.136824         1.790416         1.123952
 H         2.157652         2.088878        -2.083166
 H         4.099740         1.841495        -1.541587
 H         2.383014        -0.192212        -1.992562
