19
Iteration:  1943charge 0 multiplicity 1
 C        -0.003251         0.430914         0.014092
 C         1.480374         0.186254         0.067983
 O         1.808842        -1.289634         0.126595
 C         3.104347        -0.504799        -0.009221
 C         2.549732         0.502923         1.073571
 C         2.951133         1.928168         1.093839
 O         2.687265         2.571476        -0.078948
 C         3.151540         1.794000        -1.150469
 C         2.481300         0.382690        -1.154689
 H        -0.600142         0.080703         0.938477
 H        -0.343873         1.362528        -0.351275
 H        -0.405819        -0.315842        -0.754250
 H         3.948825        -1.034986        -0.076466
 H         2.438090        -0.044566         2.058592
 H         2.325477         2.369945         1.982158
 H         3.948370         2.082421         1.381925
 H         2.943106         2.377641        -2.128737
 H         4.241671         1.627235        -1.013153
 H         2.227949        -0.102290        -2.112582
