19
Iteration:  4275charge 0 multiplicity 1
 C        -0.024218         0.494350        -0.085195
 C         1.434804         0.134919         0.008455
 O         1.897018        -1.351125         0.199645
 C         3.068582        -0.457938         0.152458
 C         2.517162         0.449451         1.100374
 C         3.063129         1.914780         1.089338
 O         2.709809         2.577471        -0.117896
 C         2.976841         1.805411        -1.319345
 C         2.527145         0.348336        -1.024039
 H        -0.609304         0.334329         0.856258
 H        -0.066040         1.662528        -0.072352
 H        -0.418094         0.063367        -1.039852
 H         4.101805        -0.874682         0.127838
 H         2.314515        -0.084366         2.091673
 H         2.610748         2.524845         1.948235
 H         4.145311         2.050398         1.164782
 H         2.261346         2.224900        -2.063107
 H         4.129871         1.931976        -1.507444
 H         2.304019        -0.182086        -1.967034
