19
Iteration:  4799charge 0 multiplicity 1
 C        -0.093876         0.373347        -0.088028
 C         1.401664         0.123073         0.010354
 O         1.812755        -1.302043         0.133672
 C         3.164384        -0.440751         0.142486
 C         2.554704         0.565461         1.147985
 C         3.124112         1.993918         1.132847
 O         2.800111         2.614891        -0.122997
 C         2.998220         1.735827        -1.307751
 C         2.459231         0.291332        -1.061882
 H        -0.628951        -0.160519         0.771125
 H        -0.294877         1.410681         0.142411
 H        -0.556766        -0.083285        -1.023210
 H         4.129723        -0.946873         0.082650
 H         2.110688         0.224253         2.118644
 H         2.566300         2.718047         1.882744
 H         4.181100         2.077910         1.529440
 H         2.284015         2.308034        -1.978488
 H         4.040557         1.799886        -1.649074
 H         2.310401        -0.508732        -1.852131
