19
Iteration:  2141charge 0 multiplicity 1
 C        -0.043933         0.478635        -0.088376
 C         1.380761         0.140570        -0.028763
 O         1.896567        -1.319125         0.183923
 C         3.086731        -0.487210         0.012131
 C         2.616963         0.450455         1.099374
 C         3.017760         1.899030         1.166336
 O         2.690545         2.551854        -0.086412
 C         3.111843         1.836242        -1.190440
 C         2.446707         0.389530        -1.085517
 H        -0.609645         0.261389         0.863551
 H        -0.158917         1.479340        -0.137046
 H        -0.417021        -0.121268        -0.927649
 H         4.017742        -1.004689         0.003317
 H         2.262805         0.025455         2.067563
 H         2.202783         2.465777         1.824377
 H         4.090699         2.091076         1.506400
 H         2.662938         2.352000        -2.127471
 H         4.219586         1.872423        -1.302807
 H         2.179997        -0.085431        -2.036981
