19
Iteration:  4609charge 0 multiplicity 1
 C        -0.082257         0.436588         0.024731
 C         1.383981         0.134454         0.002383
 O         1.938160        -1.355488         0.142165
 C         3.078617        -0.476191         0.168433
 C         2.413104         0.510500         1.138461
 C         3.086083         1.952347         1.042343
 O         2.766535         2.620442        -0.143004
 C         3.021797         1.781831        -1.258809
 C         2.547156         0.354588        -1.123739
 H        -0.682597         0.018936         0.833381
 H        -0.118270         1.446459         0.229035
 H        -0.604881         0.058278        -0.831081
 H         4.040056        -0.957934         0.461037
 H         2.257231         0.051360         2.140760
 H         2.612745         2.579220         1.776684
 H         4.060799         1.862362         1.279634
 H         2.561900         2.258681        -2.164201
 H         4.095989         1.857011        -1.686903
 H         2.367651        -0.193291        -2.043495
