19
Iteration:  4113
 C        -0.113294         0.411465        -0.121294
 C         1.429146         0.096654         0.064631
 O         1.876290        -1.319981         0.181419
 C         3.160913        -0.525545         0.121354
 C         2.444973         0.495322         1.167524
 C         3.032208         1.977406         1.031617
 O         2.877767         2.637554        -0.109810
 C         2.936688         1.783778        -1.288543
 C         2.477035         0.346043        -1.036549
 H        -0.556192         0.224452         0.774168
 H        -0.273501         1.486899        -0.073619
 H        -0.545238        -0.071396        -0.882233
 H         4.190603        -1.053275         0.095194
 H         2.293994         0.233607         2.166849
 H         2.710852         2.682966         1.868651
 H         4.185638         1.904362         1.086085
 H         2.217986         2.324862        -1.937815
 H         4.058950         1.956718        -1.658502
 H         2.486916        -0.244582        -1.937762
