19
Iteration:  2555charge 0 multiplicity 1
 C        -0.032929         0.439451        -0.104385
 C         1.442191         0.122537         0.033229
 O         1.874650        -1.324873         0.058874
 C         3.085579        -0.527946         0.076205
 C         2.581073         0.544631         1.116356
 C         3.109846         1.974228         1.108926
 O         2.693991         2.633418        -0.028059
 C         2.946897         1.793593        -1.216473
 C         2.481767         0.336884        -1.033136
 H        -0.719578        -0.087738         0.672296
 H        -0.325371         1.468275        -0.318505
 H        -0.445935        -0.077943        -1.044437
 H         3.994957        -1.314801         0.107965
 H         2.510284         0.134571         2.176211
 H         2.759895         2.494556         2.044765
 H         4.163458         1.875335         1.362687
 H         2.548022         2.358420        -2.059706
 H         4.080043         1.739573        -1.362964
 H         2.207082        -0.173139        -1.930012
