19
Iteration:  2475
 C        -0.086895         0.358598         0.036857
 C         1.409502         0.074412         0.117326
 O         1.892424        -1.292223         0.101126
 C         3.068877        -0.466743        -0.006373
 C         2.540177         0.454112         1.121746
 C         2.877846         1.934142         1.169547
 O         2.876300         2.617535        -0.110587
 C         3.120052         1.830076        -1.295387
 C         2.493083         0.416903        -1.139225
 H        -0.719659         0.092803         0.908834
 H        -0.145945         1.492097        -0.000151
 H        -0.590819         0.054236        -0.924614
 H         4.046150        -0.927276         0.108822
 H         2.489213        -0.080450         2.097731
 H         1.950360         2.397311         1.711543
 H         3.793376         1.959841         1.753369
 H         2.533537         2.463967        -2.086687
 H         4.211773         1.749433        -1.422373
 H         2.314170        -0.075332        -2.142115
