19
Iteration:   425charge 0 multiplicity 1
 C        -0.001758         0.415550         0.001374
 C         1.430212         0.112158         0.026165
 O         1.809019        -1.311088         0.066477
 C         3.110746        -0.529994         0.046761
 C         2.497974         0.460824         1.099478
 C         3.067666         1.905795         1.153669
 O         2.765839         2.683888        -0.069797
 C         3.017840         1.848435        -1.216301
 C         2.451434         0.397936        -1.122420
 H        -0.424540         0.164342         0.957633
 H        -0.166754         1.555860        -0.081725
 H        -0.518090        -0.178975        -0.793823
 H         4.162601        -0.910821         0.166774
 H         2.375273        -0.141585         2.041405
 H         2.495019         2.370978         2.014228
 H         4.178879         1.718235         1.299515
 H         2.649835         2.363849        -2.096550
 H         4.081471         1.632291        -1.400943
 H         2.320797        -0.311002        -2.011759
