19
Iteration:   387charge 0 multiplicity 1
 C        -0.101350         0.524757         0.140183
 C         1.410188         0.192791        -0.042652
 O         1.919247        -1.310848         0.014561
 C         3.141308        -0.469196         0.089193
 C         2.479688         0.368488         1.069188
 C         2.925089         1.845644         1.159867
 O         2.792907         2.608007        -0.075029
 C         3.049317         1.811916        -1.313265
 C         2.542070         0.367807        -1.080463
 H        -0.262132         0.384272         1.263870
 H        -0.303680         1.556755        -0.144562
 H        -0.829419        -0.094013        -0.479034
 H         4.055981        -1.023522         0.220014
 H         2.240731        -0.141438         1.998286
 H         2.368854         2.408524         1.868272
 H         4.003473         1.980687         1.393890
 H         2.699856         2.459022        -2.146747
 H         4.121151         1.819973        -1.458009
 H         2.403267        -0.261826        -1.911202
