19
Iteration:  2055
 C        -0.100099         0.399029        -0.090345
 C         1.428780         0.076163         0.018843
 O         1.879841        -1.338059         0.109142
 C         3.126741        -0.469109         0.045180
 C         2.520997         0.500254         1.118056
 C         2.960243         1.933561         1.211656
 O         2.920965         2.608938        -0.083110
 C         2.957054         1.837219        -1.252141
 C         2.462640         0.381658        -1.055119
 H        -0.509012        -0.148889         0.794119
 H        -0.202154         1.499537        -0.068817
 H        -0.513726         0.221444        -1.079295
 H         4.024477        -0.980673         0.039215
 H         2.379070         0.104307         2.156791
 H         2.277183         2.650793         1.814107
 H         4.013755         1.929030         1.506703
 H         2.382590         2.401862        -2.064213
 H         4.012689         1.686771        -1.445596
 H         2.297909        -0.056014        -2.112403
