19
Iteration:  4427
 C         0.037191         0.493247         0.030861
 C         1.440418         0.123242         0.009006
 O         1.869398        -1.278592         0.160142
 C         3.111186        -0.493902         0.092181
 C         2.450426         0.504952         1.147299
 C         3.003372         1.946404         1.110424
 O         2.713690         2.560768        -0.126394
 C         2.966922         1.718722        -1.302562
 C         2.535280         0.351042        -1.087096
 H        -0.637615         0.054534         0.797576
 H        -0.052212         1.542177        -0.165950
 H        -0.429051         0.041736        -0.898225
 H         4.059587        -0.933627         0.004520
 H         2.350882         0.181327         2.223498
 H         2.631881         2.635958         1.853281
 H         4.170737         1.946409         1.298366
 H         2.664231         2.290967        -2.139942
 H         4.136569         1.760950        -1.559739
 H         2.478215        -0.212050        -2.042716
