19
Iteration:  4313
 C        -0.008719         0.373370        -0.004103
 C         1.405916         0.178431        -0.001341
 O         1.835648        -1.289867         0.128685
 C         3.072642        -0.532508         0.161020
 C         2.455063         0.491096         1.137159
 C         3.093595         1.902892         1.064498
 O         2.770288         2.661856        -0.161223
 C         3.011255         1.822973        -1.259404
 C         2.525788         0.347597        -1.035981
 H        -0.376170        -0.007920         0.951554
 H        -0.230625         1.411368        -0.290234
 H        -0.506034        -0.183386        -0.829745
 H         4.111894        -0.920505         0.206322
 H         2.274931         0.012660         2.071072
 H         2.589825         2.562161         1.874503
 H         4.167618         1.912355         1.408671
 H         2.393415         2.302067        -2.094846
 H         4.066737         1.795383        -1.690285
 H         2.390903        -0.288184        -1.919791
