19
Iteration:   778charge 0 multiplicity 1
 C        -0.061196         0.428031        -0.116114
 C         1.427275         0.143435         0.114631
 O         1.817096        -1.325562         0.134977
 C         3.146052        -0.543539        -0.010972
 C         2.607308         0.459772         1.091016
 C         2.990211         1.890436         1.217726
 O         2.808128         2.669370        -0.081694
 C         2.992364         1.826249        -1.240531
 C         2.500698         0.361596        -1.099328
 H        -0.593971         0.142276         0.839626
 H        -0.269524         1.510615        -0.158802
 H        -0.652421        -0.044148        -1.026554
 H         4.061057        -1.170884        -0.035083
 H         2.611912        -0.047806         2.029757
 H         2.296874         2.315396         1.952653
 H         3.979541         2.273431         1.619868
 H         2.435094         2.423363        -1.933669
 H         4.002464         1.895229        -1.646718
 H         2.143229        -0.041196        -2.059941
