19
Iteration:  3296
 C        -0.022769         0.396837        -0.011665
 C         1.421355         0.097232         0.005309
 O         1.874900        -1.290967         0.172781
 C         3.115893        -0.490002         0.071292
 C         2.512319         0.479730         1.147725
 C         2.963182         2.015389         1.119275
 O         2.849380         2.600181        -0.141967
 C         2.971203         1.787096        -1.268053
 C         2.445809         0.374255        -1.093766
 H        -0.460265        -0.029648         0.915000
 H        -0.144850         1.481228        -0.118546
 H        -0.407521        -0.031091        -0.967164
 H         4.011499        -1.309030         0.099053
 H         2.382455         0.028712         2.166384
 H         2.419822         2.685410         1.814920
 H         4.035990         1.930443         1.385385
 H         2.647634         2.448472        -2.092556
 H         4.101336         1.631595        -1.422859
 H         2.188017        -0.157438        -2.004938
