19
Iteration:  4057charge 0 multiplicity 1
 C        -0.024749         0.450914        -0.000719
 C         1.424098         0.164562         0.102598
 O         1.857992        -1.244056         0.163407
 C         3.110740        -0.541698         0.038900
 C         2.530492         0.491104         1.089815
 C         3.022941         1.944715         1.074893
 O         2.650960         2.564243        -0.175463
 C         3.080188         1.734772        -1.275803
 C         2.512464         0.387169        -1.035781
 H        -0.459599         0.130139         0.908050
 H        -0.153888         1.490915        -0.113599
 H        -0.561693         0.037689        -0.780096
 H         4.019258        -1.166259         0.223278
 H         2.430595         0.043940         2.071876
 H         2.455389         2.481932         1.893525
 H         4.000507         2.182633         1.345090
 H         2.787377         2.218035        -2.232617
 H         4.284517         1.684055        -1.229918
 H         2.420353        -0.253048        -1.913860
