19
Iteration:  2595
 C        -0.059933         0.565914        -0.070519
 C         1.417159         0.138691         0.033562
 O         1.927017        -1.307816         0.120427
 C         3.193965        -0.553837         0.124313
 C         2.543182         0.466341         1.059425
 C         2.972217         1.909442         1.142194
 O         2.720352         2.562613        -0.032685
 C         2.964408         1.831698        -1.271849
 C         2.508568         0.323383        -1.118746
 H        -0.512605         0.268173         0.854109
 H        -0.068419         1.605713        -0.320800
 H        -0.543478        -0.006763        -0.873769
 H         4.101402        -1.027519         0.038390
 H         2.359900         0.150333         2.114927
 H         2.408683         2.413557         2.040892
 H         4.082925         2.024061         1.331841
 H         2.123882         2.256110        -1.926564
 H         4.012784         1.933745        -1.487084
 H         2.450104        -0.326353        -2.046071
