19
Iteration:  4214
 C        -0.063159         0.464521         0.115924
 C         1.410076         0.190036         0.025160
 O         1.862044        -1.250618         0.147756
 C         3.146566        -0.489928         0.081845
 C         2.478171         0.432939         1.085604
 C         2.941359         1.962783         1.071452
 O         2.716908         2.549542        -0.149312
 C         3.093178         1.779914        -1.265214
 C         2.606266         0.330775        -1.107095
 H        -0.584907         0.021472         0.927012
 H        -0.144930         1.566711         0.001349
 H        -0.553887         0.024188        -0.696365
 H         4.076502        -1.154921         0.147438
 H         2.150665         0.054993         2.026042
 H         2.218914         2.513045         1.730548
 H         4.110644         1.939906         1.191197
 H         2.861323         2.285321        -2.256128
 H         4.197760         1.833500        -1.336379
 H         2.300559        -0.367389        -1.893772
