19
Iteration:   398
 C        -0.178095         0.557249         0.131493
 C         1.404652         0.103237        -0.035653
 O         1.972547        -1.332506        -0.011478
 C         3.176002        -0.504137         0.075755
 C         2.393862         0.449463         1.113461
 C         3.004984         1.857266         1.156049
 O         2.781638         2.566734        -0.129408
 C         3.049131         1.829548        -1.228071
 C         2.527559         0.430114        -1.104928
 H        -0.393823         0.413955         1.256424
 H        -0.237262         1.648251        -0.082723
 H        -0.860053        -0.142312        -0.411267
 H         4.178722        -0.869639         0.216933
 H         2.157081         0.033449         2.087258
 H         2.487272         2.393353         1.900911
 H         4.098192         1.795194         1.438794
 H         2.609818         2.336641        -2.126654
 H         4.110926         1.594924        -1.409822
 H         2.492899        -0.076085        -2.014012
