19
Iteration:  2010
 C         0.029672         0.432114        -0.077708
 C         1.428683         0.048209        -0.035673
 O         1.847621        -1.265899         0.152298
 C         3.182974        -0.464102         0.076879
 C         2.419001         0.430309         1.169150
 C         3.004031         1.899707         1.141625
 O         2.894735         2.590795        -0.049979
 C         2.886792         1.858597        -1.298213
 C         2.474823         0.398901        -1.073061
 H        -0.414679        -0.188632         0.768908
 H         0.007775         1.475355        -0.179476
 H        -0.389762         0.141438        -1.070398
 H         4.007521        -1.022869         0.021424
 H         2.075169         0.020600         2.177654
 H         2.427864         2.720762         1.767783
 H         4.013613         1.865364         1.528473
 H         2.177535         2.516613        -1.931195
 H         3.924054         1.841555        -1.627751
 H         2.431860        -0.263596        -2.015966
