19
Iteration:  3214
 C        -0.106192         0.454591        -0.022249
 C         1.363577         0.130620         0.081203
 O         1.862179        -1.270719         0.115087
 C         3.208248        -0.510259         0.053260
 C         2.582988         0.527828         1.130938
 C         3.036983         1.966284         1.147722
 O         2.662788         2.569989        -0.152478
 C         3.057268         1.704866        -1.242891
 C         2.517253         0.335281        -1.054780
 H        -0.775396         0.096160         0.808829
 H        -0.043124         1.647832        -0.013245
 H        -0.490250         0.103498        -1.014775
 H         4.054980        -1.072675        -0.130751
 H         2.486706         0.226925         2.166352
 H         2.539796         2.672532         1.880964
 H         4.083218         2.124777         1.334834
 H         2.637332         2.138169        -2.208599
 H         4.158262         1.666783        -1.406420
 H         2.270012        -0.155909        -2.026576
