19
Iteration:  4624
 C        -0.078354         0.464819        -0.036806
 C         1.418668         0.137552        -0.021455
 O         1.910811        -1.334147         0.131473
 C         3.146794        -0.607219         0.212886
 C         2.501111         0.566010         1.070717
 C         3.068903         1.927014         1.092461
 O         2.736567         2.609463        -0.139213
 C         2.952712         1.803900        -1.314749
 C         2.514071         0.361920        -0.990580
 H        -0.428362         0.080766         0.967436
 H        -0.346745         1.580774        -0.021559
 H        -0.599752         0.122723        -0.996350
 H         4.081584        -1.135030         0.225197
 H         2.123657         0.316631         2.094374
 H         2.700418         2.632153         1.999567
 H         4.213504         1.878107         1.075067
 H         2.300399         2.278878        -2.050583
 H         4.056839         1.778486        -1.466686
 H         2.500110        -0.238808        -1.944550
