19
Iteration:  2449
 C        -0.041912         0.405754        -0.020155
 C         1.443759         0.150576        -0.003082
 O         1.895809        -1.287443         0.093462
 C         3.169203        -0.488545        -0.038715
 C         2.483463         0.500592         1.104882
 C         2.893818         1.970143         1.213883
 O         2.877604         2.612176        -0.077604
 C         2.979450         1.735825        -1.221137
 C         2.471401         0.359037        -1.084027
 H        -0.409869         0.262175         1.020765
 H        -0.396584         1.456370         0.071569
 H        -0.538931        -0.146686        -0.799561
 H         4.158984        -0.942706        -0.054381
 H         2.297606         0.027596         2.059302
 H         2.126006         2.483461         1.763679
 H         3.913860         1.815529         1.694864
 H         2.521254         2.332466        -2.061374
 H         4.142424         1.585203        -1.385303
 H         2.272555        -0.117508        -2.077428
