19
Iteration:   956
 C        -0.080350         0.484648        -0.044774
 C         1.421107         0.146020        -0.004993
 O         1.843154        -1.271933         0.050480
 C         3.169506        -0.557972         0.133935
 C         2.559586         0.453427         1.093329
 C         3.023257         1.908613         1.148101
 O         2.732695         2.571455        -0.061244
 C         3.012159         1.826389        -1.256373
 C         2.526942         0.369851        -1.047057
 H        -0.612213         0.105179         0.837949
 H        -0.210853         1.649752        -0.088235
 H        -0.515541         0.019926        -0.896984
 H         4.005197        -1.349346         0.241570
 H         2.396549         0.043503         2.102509
 H         2.501714         2.523563         1.893352
 H         4.109649         1.935002         1.288282
 H         2.246112         2.236201        -1.917403
 H         4.033943         2.165664        -1.675883
 H         2.491984        -0.144700        -1.970753
