19
Iteration:   952charge 0 multiplicity 1
 C        -0.041948         0.492815        -0.017009
 C         1.428654         0.139944        -0.005179
 O         1.831513        -1.284359         0.035183
 C         3.151307        -0.550361         0.147792
 C         2.532744         0.438311         1.111043
 C         3.015812         1.900325         1.150907
 O         2.730088         2.594234        -0.080967
 C         3.012071         1.806551        -1.272329
 C         2.567593         0.391084        -1.059923
 H        -0.468220         0.145094         0.902504
 H        -0.224370         1.561573        -0.083021
 H        -0.503196        -0.006041        -0.911180
 H         3.950187        -1.329847         0.208464
 H         2.339251        -0.009966         2.136616
 H         2.482050         2.587012         1.848967
 H         4.125335         1.943110         1.342712
 H         2.156185         2.369381        -1.887347
 H         3.981472         2.140712        -1.544990
 H         2.428552        -0.233966        -2.037245
