19
Iteration:  4661
 C        -0.009057         0.491814        -0.122563
 C         1.460243         0.144013         0.091626
 O         1.849697        -1.279118         0.219592
 C         3.123390        -0.544166         0.083284
 C         2.595193         0.497727         1.125956
 C         3.043485         1.955861         1.101643
 O         2.662436         2.525077        -0.093083
 C         2.957224         1.802392        -1.316500
 C         2.511331         0.351303        -1.053558
 H        -0.739332         0.263829         0.687015
 H         0.040906         1.644594        -0.534098
 H        -0.391661        -0.162759        -0.916971
 H         4.117809        -1.090699         0.025338
 H         2.359576         0.153916         2.125984
 H         2.623475         2.531229         1.875436
 H         4.244708         1.929711         1.403724
 H         2.404528         2.277797        -2.131305
 H         3.986147         1.822967        -1.577008
 H         2.220708        -0.145524        -1.984755
