19
Iteration:  1856charge 0 multiplicity 1
 C        -0.136664         0.422073        -0.133453
 C         1.430020         0.084869        -0.017099
 O         1.808001        -1.314371         0.107352
 C         3.146325        -0.479242         0.113415
 C         2.505847         0.555065         1.057981
 C         3.144935         1.921496         1.186295
 O         2.806974         2.627914        -0.045423
 C         2.912691         1.764914        -1.209452
 C         2.584948         0.379939        -1.052203
 H        -0.735723        -0.124781         0.675378
 H        -0.274322         1.368649         0.084431
 H        -0.371201        -0.003546        -1.140010
 H         4.004596        -1.042502         0.193780
 H         2.481338         0.004628         2.051231
 H         2.647885         2.519442         2.037545
 H         4.269603         1.996503         1.335451
 H         2.168698         2.241003        -1.918733
 H         3.824912         1.947377        -1.743159
 H         2.335232        -0.160726        -2.001599
