19
Iteration:  3121charge 0 multiplicity 1
 C        -0.100411         0.326806        -0.029813
 C         1.407448         0.119892         0.039691
 O         1.905992        -1.300186         0.130440
 C         3.073060        -0.436997         0.077336
 C         2.516237         0.583687         1.170391
 C         3.054086         1.924827         1.101131
 O         2.834150         2.613190        -0.134354
 C         2.983036         1.742603        -1.238606
 C         2.451586         0.381809        -1.105366
 H        -0.711677         0.117110         0.883758
 H        -0.142197         1.460187        -0.261726
 H        -0.531703        -0.194339        -0.924386
 H         4.122329        -0.976348         0.202061
 H         2.532013         0.066682         2.169906
 H         2.557259         2.592859         1.865876
 H         4.160167         1.983304         1.432103
 H         2.581785         2.259737        -2.057382
 H         4.066459         1.696142        -1.520554
 H         2.149457        -0.173427        -1.995727
