19
Iteration:  1704charge 0 multiplicity 1
 C        -0.098087         0.440090        -0.088778
 C         1.401117         0.129590        -0.011761
 O         1.830502        -1.262984         0.148508
 C         3.176851        -0.501270         0.046897
 C         2.539537         0.429318         1.146290
 C         3.061441         1.872653         1.154553
 O         2.706513         2.626769        -0.063575
 C         3.001184         1.840462        -1.254069
 C         2.569028         0.362614        -1.049208
 H        -0.746310        -0.199938         0.660751
 H        -0.009129         1.563164         0.004608
 H        -0.578173         0.345707        -1.142619
 H         4.132082        -1.107033         0.006231
 H         2.444807        -0.159373         2.079338
 H         2.749266         2.517585         1.926357
 H         4.138996         1.835125         1.176624
 H         2.297264         2.170449        -2.014038
 H         4.051729         2.058875        -1.467870
 H         2.357641        -0.174473        -2.001651
