19
Iteration:   862charge 0 multiplicity 1
 C        -0.067635         0.357547        -0.022555
 C         1.444220         0.139076         0.053492
 O         1.791014        -1.306860         0.070524
 C         3.081614        -0.548839         0.029799
 C         2.577424         0.437287         1.103955
 C         3.039851         1.988653         1.202862
 O         2.763733         2.695986        -0.094340
 C         3.094632         1.825218        -1.227126
 C         2.476677         0.379359        -1.072228
 H        -0.630406        -0.166684         0.813769
 H        -0.321562         1.328588        -0.034318
 H        -0.387613        -0.114347        -0.961319
 H         3.888614        -1.116656        -0.157704
 H         2.424261         0.042935         2.080003
 H         2.495257         2.528324         1.957802
 H         4.132315         1.969707         1.355451
 H         2.584693         2.372146        -2.098421
 H         4.161402         1.692877        -1.482993
 H         2.260850        -0.146784        -1.999205
