19
Iteration:  4923charge 0 multiplicity 1
 C        -0.010461         0.462624         0.139547
 C         1.378510         0.131115         0.035555
 O         1.890576        -1.354727         0.066614
 C         3.112894        -0.475491         0.110610
 C         2.454265         0.545608         1.118950
 C         2.911246         2.014732         1.091712
 O         2.782476         2.613965        -0.191600
 C         3.111557         1.688029        -1.248133
 C         2.500907         0.318789        -1.108112
 H        -0.415081        -0.100092         0.939826
 H        -0.237594         1.595945         0.124794
 H        -0.487441         0.095759        -0.761280
 H         4.165670        -0.906720         0.280315
 H         2.179881         0.081884         2.022078
 H         2.456476         2.766780         1.941430
 H         3.947897         2.035658         1.230850
 H         2.737899         2.234753        -2.076955
 H         4.168548         1.623168        -1.442914
 H         2.452272        -0.251512        -2.036273
