19
Iteration:   251charge 0 multiplicity 1
 C        -0.098211         0.494628        -0.037402
 C         1.434876         0.152358         0.031248
 O         1.899519        -1.342666         0.070857
 C         3.130568        -0.448287         0.027977
 C         2.550858         0.494611         1.081502
 C         3.016612         1.933373         1.134228
 O         2.832179         2.545233        -0.051087
 C         3.010375         1.770957        -1.169140
 C         2.369500         0.377668        -1.078775
 H        -0.578328         0.072601         0.837773
 H        -0.217467         1.628070        -0.133699
 H        -0.342109        -0.150793        -0.965637
 H         4.135459        -0.885526         0.060361
 H         2.373935         0.110052         2.090698
 H         2.369249         2.369659         1.937070
 H         4.057410         1.867377         1.515369
 H         2.581185         2.322460        -1.996542
 H         4.028497         1.585076        -1.511867
 H         2.158132         0.084925        -2.116149
