19
Iteration:  4901
 C        -0.022501         0.423998         0.069135
 C         1.414777         0.135783         0.000648
 O         1.785432        -1.269049         0.171281
 C         3.121657        -0.566197         0.083525
 C         2.582484         0.525491         1.089277
 C         2.957621         1.958681         1.089224
 O         2.699772         2.628829        -0.183096
 C         3.101347         1.766607        -1.249403
 C         2.603343         0.314614        -1.060261
 H        -0.375401         0.220880         1.041283
 H        -0.142068         1.505977        -0.252419
 H        -0.660955        -0.063220        -0.637910
 H         4.067039        -1.167538        -0.083309
 H         2.396095         0.127918         2.042172
 H         2.063324         2.453752         1.690038
 H         3.882534         2.182252         1.480455
 H         2.688823         2.252146        -2.098370
 H         4.179363         1.808826        -1.417786
 H         2.278998        -0.234793        -1.932781
