19
Iteration:  3955
 C        -0.137578         0.409807        -0.061701
 C         1.377381         0.129491         0.008144
 O         1.891747        -1.362744         0.226608
 C         3.130876        -0.533210         0.146317
 C         2.482522         0.544836         1.078574
 C         3.120314         1.975075         1.055193
 O         2.840828         2.664513        -0.118253
 C         2.971605         1.795629        -1.265808
 C         2.494696         0.370076        -1.039648
 H        -0.794589        -0.011219         0.732392
 H        -0.409465         1.372225        -0.188499
 H        -0.504310        -0.198731        -0.943728
 H         4.106296        -0.980300         0.117237
 H         2.356029        -0.095636         2.066527
 H         2.471833         2.631518         1.796758
 H         4.239481         1.858016         1.260736
 H         2.487693         2.227173        -2.149834
 H         4.086394         1.758067        -1.538530
 H         2.211932        -0.135672        -2.024790
