19
Iteration:  3339charge 0 multiplicity 1
 C        -0.032092         0.365474         0.040590
 C         1.449500         0.119045        -0.012628
 O         1.860405        -1.310907         0.104458
 C         3.072864        -0.510518         0.082015
 C         2.517929         0.558528         1.124170
 C         2.966536         1.968130         1.206752
 O         2.827354         2.613363        -0.153717
 C         3.062394         1.750286        -1.284606
 C         2.429981         0.401782        -1.074868
 H        -0.425512         0.475626         1.100825
 H        -0.283581         1.333607        -0.434604
 H        -0.596267        -0.445233        -0.531771
 H         4.161164        -0.921063         0.139622
 H         2.293539         0.063029         2.110981
 H         2.378531         2.664252         1.841496
 H         3.993191         2.023940         1.351051
 H         2.560654         2.152944        -2.198194
 H         4.097955         1.573642        -1.578408
 H         2.457748        -0.041741        -2.081652
