19
Iteration:  2964charge 0 multiplicity 1
 C        -0.050742         0.359276         0.026787
 C         1.448120         0.132523         0.084411
 O         1.833773        -1.258318         0.111345
 C         3.128888        -0.482598         0.048255
 C         2.422821         0.535795         1.107139
 C         3.064832         1.926086         1.114697
 O         2.740759         2.584062        -0.110836
 C         3.039703         1.788725        -1.243627
 C         2.551900         0.360194        -1.112145
 H        -0.477603         0.273020         1.039382
 H        -0.229344         1.374587        -0.330049
 H        -0.461051        -0.394552        -0.667362
 H         4.152755        -0.991561         0.001047
 H         2.078541         0.099571         2.053206
 H         2.641364         2.505243         1.869275
 H         4.116486         1.924651         1.088622
 H         2.629583         2.313992        -2.173965
 H         4.133848         1.989870        -1.253222
 H         2.200860        -0.195519        -2.031355
