19
Iteration:  4853
 C         0.008450         0.513310        -0.081061
 C         1.382120         0.060585         0.047349
 O         1.880390        -1.357827         0.140246
 C         3.127971        -0.417736         0.157106
 C         2.540237         0.531120         1.092198
 C         3.096361         1.964857         1.046120
 O         2.684372         2.585992        -0.120387
 C         2.962514         1.706416        -1.202640
 C         2.499457         0.367581        -1.060300
 H        -0.533941         0.594534         0.933183
 H        -0.013769         1.457137        -0.630999
 H        -0.756632        -0.103213        -0.716531
 H         4.026078        -0.999004         0.278450
 H         2.424078         0.039565         2.133160
 H         2.639938         2.695611         1.784672
 H         4.124257         1.857056         1.230742
 H         2.352016         2.271961        -1.999536
 H         3.984356         1.680200        -1.443138
 H         2.556038        -0.310316        -1.962891
