19
Iteration:  3656charge 0 multiplicity 1
 C        -0.080318         0.404504         0.085046
 C         1.473284         0.151700        -0.049685
 O         1.829640        -1.252405         0.156824
 C         3.139213        -0.556542         0.150064
 C         2.522927         0.489843         1.135122
 C         2.982404         1.965270         1.029926
 O         2.688491         2.597768        -0.158783
 C         3.097943         1.770634        -1.280097
 C         2.539824         0.370767        -1.107109
 H        -0.486826        -0.104662         0.917966
 H        -0.128746         1.499575         0.253917
 H        -0.684655         0.206674        -0.737504
 H         3.963905        -1.217335         0.325158
 H         2.239512        -0.053076         2.074124
 H         2.637213         2.534006         1.932742
 H         4.065205         2.101376         1.268284
 H         2.687691         2.243279        -2.178403
 H         4.179556         1.795323        -1.414562
 H         2.376623        -0.133368        -2.065229
