19
Iteration:   276
 C        -0.091204         0.405957        -0.000290
 C         1.460886         0.098912         0.029464
 O         1.778047        -1.258143         0.084706
 C         3.094558        -0.574507         0.048419
 C         2.494676         0.445529         1.170718
 C         3.036724         1.867133         1.122159
 O         2.805080         2.697936        -0.086154
 C         3.021448         1.929870        -1.286963
 C         2.622015         0.344881        -1.053703
 H        -0.454001        -0.158230         0.870661
 H        -0.132916         1.419170         0.186960
 H        -0.526879        -0.032081        -1.031732
 H         3.922412        -1.413576         0.080237
 H         2.066692         0.140148         2.158289
 H         2.627614         2.435798         2.026330
 H         4.103233         1.640828         1.290049
 H         2.188313         2.184914        -2.071160
 H         3.936905         2.098293        -1.814170
 H         2.517446        -0.008194        -2.119917
