19
Iteration:  2121
 C        -0.027876         0.351847         0.015681
 C         1.456980         0.139882         0.085087
 O         1.795320        -1.273617         0.070290
 C         3.122055        -0.529882        -0.002861
 C         2.483150         0.484224         1.091933
 C         2.961671         1.911881         1.109134
 O         2.708455         2.678587        -0.099017
 C         3.127101         1.792915        -1.186157
 C         2.556880         0.400457        -1.077653
 H        -0.604569         0.222843         0.940866
 H        -0.293010         1.383238        -0.118091
 H        -0.365545        -0.206940        -0.821653
 H         3.981965        -1.044959        -0.032419
 H         2.375466         0.094239         2.145264
 H         2.427526         2.486760         1.961173
 H         4.061653         1.692929         1.118214
 H         2.911253         2.345328        -2.158500
 H         4.208404         1.668370        -1.034914
 H         2.318401        -0.181737        -2.055266
