19
Iteration:   194charge 0 multiplicity 1
 C        -0.024106         0.414697         0.138430
 C         1.418895         0.163924        -0.059190
 O         1.775311        -1.248434        -0.009188
 C         3.100019        -0.608178         0.072554
 C         2.498559         0.464303         1.107700
 C         2.970457         1.919356         1.187737
 O         2.767367         2.703507        -0.082463
 C         3.057624         1.782976        -1.272869
 C         2.651529         0.321747        -1.076946
 H        -0.340237         0.112259         1.205689
 H        -0.384824         1.497023        -0.241546
 H        -0.536331        -0.171398        -0.545591
 H         3.897725        -1.210080         0.076554
 H         2.241491        -0.015365         2.019676
 H         2.476762         2.557676         1.853778
 H         4.045128         2.010292         1.442827
 H         2.412501         2.149975        -1.953977
 H         4.084502         1.852428        -1.602413
 H         2.590532        -0.015799        -2.053288
