19
Iteration:  2173
 C         0.064926         0.550716        -0.077946
 C         1.462479         0.101818        -0.004434
 O         1.891413        -1.318987         0.078068
 C         3.126818        -0.491415         0.096598
 C         2.467284         0.423959         1.116353
 C         2.991671         1.885850         1.144187
 O         2.753779         2.613294        -0.101679
 C         2.928879         1.806459        -1.213872
 C         2.536084         0.360340        -1.017046
 H        -0.527395         0.145055         0.834297
 H        -0.026949         1.605492        -0.178079
 H        -0.486163         0.232953        -1.023891
 H         4.115849        -1.058527         0.177060
 H         2.159439         0.025464         2.117457
 H         2.441107         2.490999         1.956299
 H         4.063636         1.826731         1.367259
 H         2.046051         2.079842        -1.914166
 H         3.924240         1.992737        -1.660833
 H         2.280263        -0.153668        -1.915285
