19
Iteration:  1179
 C        -0.078476         0.446645        -0.116160
 C         1.414660         0.163480         0.046716
 O         1.835922        -1.330011         0.125881
 C         3.107041        -0.483297         0.057341
 C         2.576878         0.439072         1.122717
 C         3.101476         1.879073         1.155054
 O         2.744505         2.601095        -0.042728
 C         2.969800         1.858570        -1.246553
 C         2.537386         0.389890        -1.044057
 H        -0.769654        -0.105858         0.682145
 H        -0.225405         1.543298        -0.159165
 H        -0.328546         0.110757        -1.217350
 H         4.115236        -0.980507        -0.130375
 H         2.169394        -0.086924         1.999655
 H         2.600606         2.527465         2.017374
 H         4.199273         1.713181         1.383859
 H         2.277753         2.335627        -1.983091
 H         4.067108         1.937090        -1.634484
 H         2.309100        -0.102210        -2.073570
