19
Iteration:  4197
 C        -0.016575         0.442136         0.127974
 C         1.412763         0.120974        -0.005029
 O         1.847661        -1.325478         0.053328
 C         3.089367        -0.486889         0.120852
 C         2.408092         0.587577         1.105125
 C         2.972774         1.969558         1.116777
 O         2.737644         2.611581        -0.186209
 C         3.129480         1.731454        -1.254396
 C         2.551879         0.345876        -1.072615
 H        -0.260130        -0.105579         1.128013
 H        -0.176124         1.512187         0.030841
 H        -0.705626        -0.102240        -0.683520
 H         4.060553        -0.888261         0.176599
 H         2.359693         0.114215         2.147858
 H         2.569434         2.528748         1.963533
 H         4.004021         1.885841         1.320209
 H         2.665036         2.023787        -2.199749
 H         4.264670         1.649994        -1.464554
 H         2.520940        -0.170775        -2.054868
