19
Iteration:  2727charge 0 multiplicity 1
 C         0.010522         0.381995        -0.010633
 C         1.414774         0.099710        -0.105029
 O         1.888069        -1.284119         0.081053
 C         3.093309        -0.454209         0.195411
 C         2.479800         0.489047         1.112048
 C         3.012213         1.924146         1.124354
 O         2.852152         2.682623        -0.077027
 C         2.880504         1.781842        -1.267333
 C         2.499511         0.319421        -1.057633
 H        -0.347198         0.027769         0.965462
 H         0.017408         1.400224         0.071632
 H        -0.542854         0.018703        -0.890236
 H         4.003509        -1.101348         0.216345
 H         2.188896         0.224474         2.135052
 H         2.617636         2.443440         2.064560
 H         4.081168         1.836815         1.166453
 H         2.225296         2.195758        -2.138921
 H         3.920244         1.918603        -1.687721
 H         2.551916        -0.290038        -1.953781
