19
Iteration:  3867
 C         0.014279         0.558179         0.059877
 C         1.448660         0.137289        -0.014900
 O         1.901698        -1.344583         0.136059
 C         3.110201        -0.491831         0.127278
 C         2.422886         0.492773         1.085512
 C         2.922056         1.925961         1.086494
 O         2.735216         2.582070        -0.167897
 C         3.048134         1.734831        -1.307510
 C         2.540527         0.370841        -1.044838
 H        -0.212472         0.110277         1.067875
 H        -0.112435         1.596989        -0.011855
 H        -0.675845         0.022109        -0.637925
 H         4.081292        -0.945051         0.140646
 H         2.336431         0.031123         2.155969
 H         2.349258         2.560116         1.930280
 H         3.968321         2.003495         1.435418
 H         2.698256         2.181606        -2.231842
 H         4.077536         1.698246        -1.350076
 H         2.461916        -0.246124        -1.989057
