19
Iteration:  1518
 C        -0.048101         0.435055        -0.180759
 C         1.384452         0.130581         0.107237
 O         1.856306        -1.279468         0.117216
 C         3.104041        -0.591695         0.006569
 C         2.578848         0.454145         1.134371
 C         3.104357         1.903230         1.132024
 O         2.712473         2.646638        -0.051610
 C         2.964758         1.862975        -1.238697
 C         2.499021         0.355922        -1.006227
 H        -0.717276        -0.135943         0.544735
 H        -0.258281         1.410887         0.053007
 H        -0.412996         0.204906        -1.244774
 H         4.093518        -1.163293        -0.078176
 H         2.669877         0.222459         2.213351
 H         2.654587         2.369257         1.947208
 H         4.247774         2.043014         1.223514
 H         2.400242         2.303858        -1.994469
 H         4.096598         1.846864        -1.239354
 H         2.318907        -0.028668        -2.016743
