19
Iteration:  4695
 C        -0.075536         0.503118         0.023913
 C         1.435994         0.051738         0.024462
 O         1.903584        -1.361160         0.162402
 C         3.123290        -0.504035         0.070476
 C         2.463738         0.538522         1.072397
 C         2.991473         1.992725         1.076233
 O         2.712238         2.597071        -0.114677
 C         3.063480         1.742635        -1.239240
 C         2.518809         0.351684        -1.066107
 H        -0.584443         0.523354         1.030998
 H         0.054347         1.609992        -0.446548
 H        -0.564223         0.017763        -0.820390
 H         4.152491        -0.964774         0.033060
 H         2.322388         0.202152         2.105906
 H         2.557629         2.591304         1.800970
 H         4.158049         1.898889         1.315551
 H         2.611629         2.258097        -2.100876
 H         4.123731         1.727098        -1.345474
 H         2.302622        -0.210522        -1.971841
