19
Iteration:  2087
 C        -0.121051         0.370776         0.074834
 C         1.351883         0.168881        -0.079180
 O         1.883705        -1.291495         0.036562
 C         3.129537        -0.477747         0.084935
 C         2.441987         0.494128         1.121833
 C         2.950166         1.886951         1.139126
 O         2.825627         2.603949        -0.097507
 C         3.067965         1.822353        -1.243628
 C         2.613627         0.399882        -1.078411
 H        -0.400872        -0.121843         1.045698
 H        -0.343612         1.404859         0.124390
 H        -0.732705        -0.220577        -0.601514
 H         4.003958        -0.969324         0.177388
 H         2.107205         0.115040         2.120269
 H         2.696840         2.686515         1.936677
 H         3.997336         1.733728         1.495887
 H         2.723845         2.327608        -2.210027
 H         4.153710         1.787448        -1.399653
 H         2.482492        -0.172083        -2.046486
