19
Iteration:  1217charge 0 multiplicity 1
 C        -0.011933         0.408268        -0.010322
 C         1.459913         0.193515         0.030595
 O         1.827394        -1.370516         0.121411
 C         3.110306        -0.504962        -0.032152
 C         2.505372         0.442942         1.080156
 C         2.962380         1.882969         1.208008
 O         2.795788         2.628990        -0.065437
 C         3.056963         1.818768        -1.232172
 C         2.460576         0.429403        -1.100399
 H        -0.607517         0.280365         0.836404
 H        -0.069831         1.607913        -0.307281
 H        -0.409218        -0.134247        -0.824217
 H         4.069682        -0.968977        -0.095949
 H         2.309696         0.046527         2.081941
 H         2.401082         2.389529         1.964393
 H         4.058347         2.102488         1.465308
 H         2.562347         2.363919        -2.026870
 H         4.073803         1.757842        -1.382068
 H         2.362934        -0.084806        -2.021736
