19
Iteration:  3174
 C        -0.064218         0.449972         0.061035
 C         1.479054         0.074286        -0.018282
 O         1.872545        -1.305965         0.138589
 C         3.141584        -0.539819         0.019727
 C         2.468272         0.568455         1.059565
 C         2.975801         2.017541         1.163881
 O         2.784452         2.651648        -0.113683
 C         3.001289         1.722710        -1.267989
 C         2.543135         0.313510        -1.033999
 H        -0.564356         0.480848         1.042699
 H        -0.158722         1.377455        -0.291549
 H        -0.623555        -0.169813        -0.671797
 H         4.129182        -1.171046         0.025058
 H         2.145131         0.072429         1.988615
 H         2.407350         2.537795         1.917416
 H         4.066350         1.859120         1.322102
 H         2.378029         2.194072        -2.057322
 H         4.046588         1.824235        -1.587426
 H         2.372593        -0.263252        -1.984022
