19
Iteration:  2569charge 0 multiplicity 1
 C         0.039446         0.418396        -0.152065
 C         1.440001         0.097918         0.085016
 O         1.814569        -1.329037         0.151245
 C         3.145045        -0.564651         0.059399
 C         2.544096         0.403899         1.137011
 C         3.076006         1.952512         1.168329
 O         2.706157         2.669958        -0.097888
 C         2.969081         1.852470        -1.220737
 C         2.417203         0.408000        -1.078241
 H        -0.556726         0.203093         0.738952
 H         0.170098         1.571631        -0.243998
 H        -0.290260        -0.021241        -1.100030
 H         4.314770        -0.998261        -0.075804
 H         2.257606         0.002364         2.090197
 H         2.640354         2.481421         1.966808
 H         4.158215         2.092039         1.090103
 H         2.354033         2.239946        -1.965641
 H         4.035251         1.827753        -1.398638
 H         2.254009        -0.127185        -2.025854
