19
Iteration:  2808charge 0 multiplicity 1
 C        -0.067352         0.409988         0.028801
 C         1.366978         0.152618         0.043980
 O         1.873004        -1.265664         0.130137
 C         3.180142        -0.524849         0.001950
 C         2.524771         0.469511         1.103818
 C         3.014312         1.902213         1.094157
 O         2.654755         2.623150        -0.142752
 C         3.110203         1.807816        -1.228089
 C         2.536044         0.369018        -1.090714
 H        -0.328723         0.094030         1.026615
 H        -0.336517         1.518348        -0.102377
 H        -0.747442        -0.149692        -0.564385
 H         3.957145        -1.204249         0.183543
 H         2.367616         0.106430         2.157637
 H         2.475290         2.371139         1.950965
 H         4.086589         2.140146         1.362384
 H         2.788073         2.292247        -2.233513
 H         4.214589         1.826816        -1.079928
 H         2.341338        -0.198366        -2.043717
