19
Iteration:   326charge 0 multiplicity 1
 C        -0.105459         0.470734        -0.037444
 C         1.380141         0.123586         0.107963
 O         1.900900        -1.324554         0.137823
 C         3.130009        -0.429738        -0.021498
 C         2.490870         0.438915         1.073045
 C         3.062727         1.888624         1.089614
 O         2.756763         2.537767        -0.067651
 C         3.038314         1.853739        -1.224843
 C         2.477367         0.425872        -1.053685
 H        -0.809524         0.016767         0.665906
 H        -0.117711         1.651101         0.100038
 H        -0.479545         0.127637        -1.060751
 H         4.072003        -0.951865         0.009307
 H         2.415180        -0.180929         1.991641
 H         2.739561         2.529088         1.941404
 H         4.140201         1.703090         1.318043
 H         2.592033         2.359690        -2.061764
 H         4.179611         1.663633        -1.264337
 H         2.301636        -0.040710        -2.049069
