19
Iteration:  4626
 C        -0.058232         0.462027        -0.043026
 C         1.414313         0.135028        -0.031147
 O         1.888265        -1.330879         0.132729
 C         3.150524        -0.595408         0.209272
 C         2.516448         0.557981         1.089343
 C         3.059451         1.930061         1.087638
 O         2.733158         2.618298        -0.127306
 C         2.945317         1.795924        -1.317806
 C         2.528096         0.347360        -0.985001
 H        -0.495474         0.130842         0.944049
 H        -0.377382         1.626254         0.017174
 H        -0.556678         0.062688        -0.968562
 H         4.157063        -1.074492         0.192613
 H         2.102967         0.291226         2.066089
 H         2.711026         2.598103         1.947933
 H         4.286702         1.864502         1.061855
 H         2.343474         2.261479        -2.092050
 H         3.996319         1.810306        -1.504267
 H         2.464181        -0.217831        -1.953713
