19
Iteration:  3919charge 0 multiplicity 1
 C        -0.133445         0.373918        -0.065754
 C         1.431191         0.230163         0.035435
 O         1.871858        -1.286171         0.171013
 C         3.133611        -0.459559         0.125458
 C         2.522447         0.504174         1.131344
 C         3.101205         1.937781         1.082641
 O         2.784744         2.567652        -0.129844
 C         2.999079         1.757956        -1.276721
 C         2.439845         0.349934        -1.049351
 H        -0.721755         0.028262         0.759675
 H        -0.331383         1.393007        -0.471425
 H        -0.212511        -0.217952        -0.952170
 H         4.058086        -1.000779         0.207581
 H         2.423939         0.147784         2.148665
 H         2.654991         2.460833         1.906329
 H         4.171918         2.106956         1.313984
 H         2.481562         2.254264        -2.112508
 H         4.195447         1.772107        -1.472096
 H         2.092107        -0.228736        -1.871900
