19
Iteration:  1866charge 0 multiplicity 1
 C        -0.138978         0.437090        -0.076703
 C         1.373853         0.099247        -0.008089
 O         1.842653        -1.285878         0.060873
 C         3.164369        -0.482086         0.086583
 C         2.511598         0.513837         1.127468
 C         3.109208         1.953083         1.145545
 O         2.823128         2.608101        -0.046892
 C         2.894894         1.818054        -1.216765
 C         2.629332         0.275156        -1.037532
 H        -0.790070        -0.132644         0.664323
 H        -0.246519         1.468479        -0.032130
 H        -0.548263         0.277632        -1.137622
 H         4.029602        -0.962676         0.104330
 H         2.138928         0.073848         2.123282
 H         2.651392         2.603002         2.000473
 H         4.201029         1.833119         1.302009
 H         1.980743         2.092288        -1.871537
 H         3.845214         2.039117        -1.736746
 H         2.804744        -0.269987        -1.974955
