19
Iteration:  4643charge 0 multiplicity 1
 C         0.016793         0.452602        -0.076938
 C         1.464800         0.108340         0.098529
 O         1.772449        -1.281918         0.169462
 C         3.114826        -0.410922         0.098192
 C         2.478181         0.456524         1.147587
 C         3.107190         1.924177         1.077385
 O         2.688985         2.627952        -0.150295
 C         2.950048         1.770672        -1.252945
 C         2.590853         0.313232        -1.086371
 H        -0.423107         0.119492         0.860538
 H         0.000327         1.410273        -0.350488
 H        -0.354190         0.027072        -1.014340
 H         3.946722        -1.067526         0.279188
 H         2.549224        -0.020388         2.153615
 H         2.655137         2.538574         1.894585
 H         4.135566         1.958134         1.172821
 H         2.117943         2.098222        -1.935667
 H         4.060300         1.923909        -1.569290
 H         2.496563        -0.346465        -1.952331
