19
Iteration:   202
 C        -0.029721         0.413116         0.095281
 C         1.459591         0.161651        -0.023216
 O         1.789189        -1.254079         0.039032
 C         3.086969        -0.604733         0.035056
 C         2.474736         0.463518         1.022169
 C         2.950193         1.922269         1.082053
 O         2.805022         2.658449        -0.080011
 C         3.044637         1.830196        -1.186021
 C         2.596815         0.364031        -1.007186
 H        -0.219460         0.262958         1.164034
 H        -0.177990         1.430006        -0.147521
 H        -0.565810        -0.257801        -0.525068
 H         4.030412        -1.219824         0.013110
 H         2.347476         0.069581         2.068139
 H         2.297723         2.341152         1.845620
 H         3.967661         1.893976         1.479224
 H         2.487869         2.248343        -2.070587
 H         4.115381         1.834242        -1.471315
 H         2.455544        -0.117845        -2.013565
