19
Iteration:  2538charge 0 multiplicity 1
 C        -0.154556         0.371939        -0.048660
 C         1.355560         0.202781         0.028575
 O         1.861631        -1.264305         0.098615
 C         3.131387        -0.455153         0.095211
 C         2.513761         0.458799         1.095713
 C         3.101439         1.861486         1.121768
 O         2.694536         2.575120        -0.079973
 C         3.059432         1.810088        -1.199609
 C         2.600859         0.377798        -1.068507
 H        -0.581722        -0.012848         0.827289
 H        -0.345804         1.463205         0.081950
 H        -0.483857        -0.112545        -0.928624
 H         4.135301        -0.801666         0.095785
 H         2.273710        -0.048922         2.011041
 H         2.699953         2.552333         1.843956
 H         4.240554         1.914053         1.149688
 H         2.459237         2.233328        -2.040541
 H         4.072000         1.949299        -1.626340
 H         2.579434        -0.092155        -2.094270
