19
Iteration:  4274charge 0 multiplicity 1
 C        -0.022040         0.497496        -0.087117
 C         1.432949         0.134643         0.012717
 O         1.899862        -1.350899         0.202978
 C         3.073881        -0.464733         0.146653
 C         2.522855         0.447140         1.101172
 C         3.049011         1.917550         1.088291
 O         2.708281         2.581551        -0.116146
 C         2.979646         1.803234        -1.323658
 C         2.521077         0.360830        -1.026926
 H        -0.584289         0.324016         0.859268
 H        -0.039455         1.615906        -0.092274
 H        -0.420527         0.087184        -1.059834
 H         4.054425        -0.901321         0.148622
 H         2.307885        -0.058818         2.102516
 H         2.670427         2.478680         1.939834
 H         4.161659         2.058032         1.200363
 H         2.284482         2.176866        -2.049651
 H         4.106980         1.902953        -1.499220
 H         2.283983        -0.182297        -1.961251
