19
Iteration:  1969
 C        -0.093532         0.401676         0.027320
 C         1.414583         0.114147        -0.012336
 O         1.862090        -1.326028         0.014283
 C         3.120513        -0.513382         0.120039
 C         2.469683         0.472395         1.141560
 C         3.030245         1.922780         1.128996
 O         2.718819         2.646383        -0.128369
 C         3.108654         1.824134        -1.218485
 C         2.549266         0.413871        -1.040890
 H        -0.626569         0.245461         1.002295
 H        -0.297681         1.530076        -0.200757
 H        -0.729080        -0.213391        -0.634255
 H         4.147545        -1.128991         0.003748
 H         2.123154         0.048313         2.086873
 H         2.658326         2.419508         1.972810
 H         4.153157         1.999207         1.299756
 H         2.693171         2.252473        -2.137347
 H         4.225721         1.771756        -1.375258
 H         2.409251        -0.125706        -2.041405
