19
Iteration:  4777charge 0 multiplicity 1
 C        -0.093945         0.397491        -0.029987
 C         1.366414         0.115278         0.111111
 O         1.940527        -1.306394         0.225117
 C         3.086277        -0.469217         0.033416
 C         2.466682         0.534314         1.071172
 C         2.980260         1.901248         1.068890
 O         2.872852         2.615562        -0.201637
 C         3.060800         1.774301        -1.233746
 C         2.460432         0.404494        -1.061323
 H        -0.795997        -0.260037         0.600585
 H        -0.434698         1.376510         0.211682
 H        -0.559915         0.090903        -1.014699
 H         4.108996        -0.762313         0.193182
 H         2.364149         0.105174         2.113628
 H         2.521600         2.704620         1.820266
 H         4.135940         1.837500         1.485068
 H         2.548946         2.293290        -2.117943
 H         4.186180         1.603370        -1.344630
 H         2.238752        -0.278312        -1.929931
