19
Iteration:  3373charge 0 multiplicity 1
 C        -0.197877         0.417770         0.055716
 C         1.327677         0.148964        -0.007262
 O         1.920644        -1.298499         0.140434
 C         3.125678        -0.491175         0.117296
 C         2.527475         0.473409         1.073352
 C         3.000346         1.893600         1.105082
 O         2.754079         2.628417        -0.175401
 C         3.072911         1.773563        -1.281914
 C         2.588204         0.402421        -1.047208
 H        -0.471121         0.292720         1.099362
 H        -0.271857         1.524394        -0.333335
 H        -0.748462        -0.266424        -0.553042
 H         4.158703        -1.050979         0.365115
 H         2.289473         0.149631         2.129461
 H         2.673200         2.421915         1.997688
 H         4.169863         1.859216         1.226220
 H         2.522640         2.164854        -2.120832
 H         4.126842         1.804580        -1.525234
 H         2.665548        -0.049594        -2.002119
