19
Iteration:  2251charge 0 multiplicity 1
 C        -0.137361         0.308321        -0.080801
 C         1.365984         0.186426         0.061096
 O         1.896905        -1.279543         0.172900
 C         3.069633        -0.519403        -0.038379
 C         2.532046         0.424404         1.119591
 C         3.046975         1.916957         1.099522
 O         2.776185         2.622477        -0.096904
 C         3.161578         1.821426        -1.216264
 C         2.478382         0.463696        -1.015159
 H        -0.784582        -0.084713         0.847144
 H        -0.262432         1.377474        -0.159689
 H        -0.703596        -0.113063        -0.993626
 H         4.098030        -0.969961        -0.183443
 H         2.316065         0.052011         2.161477
 H         2.385901         2.438360         1.931552
 H         3.967597         2.045720         1.549905
 H         2.798764         2.278869        -2.259482
 H         4.241733         1.787964        -1.345079
 H         2.215510         0.030329        -2.008554
