19
Iteration:  1997
 C        -0.061295         0.434988        -0.033235
 C         1.417397         0.146674        -0.048033
 O         1.920988        -1.312731         0.091099
 C         3.127329        -0.474679         0.110375
 C         2.404255         0.499233         1.089012
 C         3.014596         1.872861         1.203661
 O         2.844383         2.622346        -0.083051
 C         2.955049         1.796372        -1.269959
 C         2.574849         0.368003        -1.066227
 H        -0.578781         0.179140         0.894517
 H        -0.181448         1.446101         0.037667
 H        -0.657702        -0.019801        -0.839291
 H         4.028040        -0.917962         0.169098
 H         2.069507        -0.001464         2.023631
 H         2.562981         2.460916         2.099593
 H         4.088662         1.775502         1.411095
 H         2.187463         2.145229        -2.013363
 H         3.874110         1.929230        -1.818903
 H         2.428888        -0.121034        -2.012421
