19
Iteration:   823
 C         0.015367         0.399597        -0.013095
 C         1.374160         0.095151        -0.089963
 O         1.901574        -1.284022         0.072651
 C         3.107766        -0.424846         0.119931
 C         2.342557         0.525150         1.180401
 C         3.103983         1.856648         1.148372
 O         2.845062         2.606998        -0.020833
 C         2.919508         1.815196        -1.335803
 C         2.513559         0.407447        -1.060715
 H        -0.466223        -0.212813         0.730844
 H        -0.193301         1.558240         0.160363
 H        -0.495088         0.007964        -0.971570
 H         4.216864        -0.875936         0.235573
 H         1.959995        -0.145467         1.981582
 H         2.963373         2.467644         2.091605
 H         4.234692         1.572705         1.163201
 H         2.295793         2.245618        -2.115127
 H         3.963802         1.963611        -1.649798
 H         2.297936        -0.285867        -1.935298
