19
Iteration:  1805
 C        -0.159811         0.342513        -0.032016
 C         1.398164         0.115814        -0.024247
 O         1.849588        -1.298590         0.012264
 C         3.073470        -0.454676         0.103427
 C         2.587867         0.509069         1.097050
 C         3.065678         1.974514         1.137846
 O         2.775980         2.602539        -0.074691
 C         3.088583         1.784772        -1.178472
 C         2.445973         0.379946        -1.077193
 H        -0.484437         0.157871         1.023079
 H        -0.237738         1.578577        -0.160676
 H        -0.735339        -0.338882        -0.674660
 H         4.190138        -0.956143         0.193655
 H         2.444746         0.034513         2.053726
 H         2.548643         2.476110         1.896034
 H         4.089342         2.199460         1.398050
 H         2.727260         2.385953        -1.996223
 H         4.283485         1.656911        -1.206439
 H         2.407529        -0.329822        -1.942455
