19
Iteration:  2938
 C        -0.132123         0.364794        -0.012323
 C         1.365279         0.065093        -0.090335
 O         1.893433        -1.295913         0.105178
 C         3.062551        -0.499825         0.160541
 C         2.486441         0.492676         1.132327
 C         3.149660         1.918458         1.102500
 O         2.818584         2.694737        -0.112525
 C         2.945605         1.835257        -1.269001
 C         2.555836         0.355917        -1.019362
 H        -0.354087         0.034016         0.976056
 H        -0.441098         1.421305        -0.099615
 H        -0.687756        -0.268610        -0.656174
 H         3.983009        -0.994157         0.091740
 H         2.246724         0.083708         2.155181
 H         2.584588         2.507509         1.938151
 H         4.244899         2.000475         1.117990
 H         2.516774         2.317403        -2.237517
 H         4.054567         1.993774        -1.409506
 H         2.508252        -0.311949        -1.903771
