19
Iteration:  4461charge 0 multiplicity 1
 C        -0.053392         0.489397        -0.114821
 C         1.396412         0.143689         0.066617
 O         1.896021        -1.304299         0.216275
 C         3.109834        -0.596975         0.051329
 C         2.581731         0.532649         1.132270
 C         3.077560         1.976819         1.082227
 O         2.666233         2.603990        -0.097463
 C         2.963139         1.775800        -1.252862
 C         2.503660         0.338165        -1.049921
 H        -0.786154         0.340637         0.679431
 H        -0.128134         1.573976        -0.328612
 H        -0.241111        -0.030146        -1.073679
 H         4.033413        -1.156527        -0.037272
 H         2.529772         0.063135         2.140275
 H         2.681165         2.517679         1.866461
 H         4.230511         1.901683         1.148917
 H         2.383731         2.122289        -2.055425
 H         4.147159         1.724569        -1.297974
 H         2.446668        -0.215633        -2.005576
