19
Iteration:  2764
 C        -0.111481         0.463958        -0.089745
 C         1.416710         0.112374         0.062861
 O         1.925220        -1.260132         0.138246
 C         3.112245        -0.501082         0.089540
 C         2.618213         0.473389         1.154298
 C         3.015858         1.880580         1.098474
 O         2.730556         2.633166        -0.085510
 C         2.932912         1.766113        -1.272202
 C         2.536151         0.335303        -1.070472
 H        -0.774690         0.298085         0.751216
 H        -0.009469         1.576420        -0.376487
 H        -0.604300        -0.041545        -0.910872
 H         4.056832        -0.889174        -0.049063
 H         2.591140        -0.076568         2.117683
 H         2.513438         2.436971         1.900347
 H         4.060186         2.011268         1.519529
 H         2.311831         2.383127        -2.043099
 H         4.048453         1.826401        -1.577349
 H         2.314224        -0.311444        -1.936620
