19
Iteration:  3518
 C        -0.044002         0.391741         0.024359
 C         1.391418         0.090577         0.040367
 O         1.877975        -1.309557         0.211630
 C         3.093758        -0.453536         0.003784
 C         2.494534         0.522395         1.018612
 C         3.013036         1.987004         1.130220
 O         2.777108         2.613983        -0.145672
 C         3.143478         1.779097        -1.203569
 C         2.380856         0.340836        -1.131097
 H        -0.520137         0.347155         1.015130
 H        -0.244400         1.386692        -0.365867
 H        -0.505590        -0.411793        -0.532320
 H         4.180751        -0.846846         0.188240
 H         2.438310         0.041618         2.004128
 H         2.536218         2.627604         1.819414
 H         3.990012         2.122597         1.506998
 H         2.890320         2.275823        -2.114784
 H         4.200092         1.480000        -1.271145
 H         2.119432        -0.239312        -1.991028
