19
Iteration:  1905charge 0 multiplicity 1
 C         0.000870         0.479617        -0.001117
 C         1.434061         0.074200         0.029720
 O         1.862645        -1.330268         0.073867
 C         3.130486        -0.458997         0.072411
 C         2.464386         0.453686         1.106408
 C         2.946535         1.908715         1.122079
 O         2.761580         2.617968        -0.086581
 C         3.010506         1.796526        -1.229315
 C         2.521038         0.370013        -1.089327
 H        -0.560735         0.205555         0.857467
 H         0.031960         1.617049         0.138029
 H        -0.361039         0.026163        -0.895214
 H         4.208537        -0.982735         0.061827
 H         2.256285         0.169297         2.116267
 H         2.476843         2.541006         1.829104
 H         4.067175         1.872984         1.435371
 H         2.593857         2.354843        -2.013564
 H         4.074887         1.836514        -1.526981
 H         2.372335        -0.182278        -2.022192
