19
Iteration:   866charge 0 multiplicity 1
 C        -0.020358         0.334457        -0.024086
 C         1.441480         0.164088         0.075387
 O         1.780351        -1.302074         0.073154
 C         3.086952        -0.553542        -0.007104
 C         2.578804         0.448680         1.136179
 C         3.032368         1.984477         1.195652
 O         2.753853         2.696167        -0.118176
 C         3.091393         1.817167        -1.187611
 C         2.439247         0.408234        -1.109358
 H        -0.580752        -0.113834         0.764498
 H        -0.222409         1.479911        -0.000520
 H        -0.411271        -0.180211        -0.957036
 H         4.056858        -1.224100        -0.154308
 H         2.405202         0.020677         2.171552
 H         2.422013         2.512624         1.961806
 H         4.084765         1.846586         1.460278
 H         2.648081         2.354495        -2.103285
 H         4.150913         1.584240        -1.454102
 H         2.343514        -0.270102        -2.008603
