19
Iteration:  2491charge 0 multiplicity 1
 C        -0.185687         0.417116         0.053517
 C         1.352836         0.079984        -0.000057
 O         1.883240        -1.351254         0.013918
 C         3.194710        -0.506287         0.013290
 C         2.492299         0.483540         1.085579
 C         2.917357         1.997361         1.184541
 O         2.875947         2.681807        -0.103593
 C         3.063134         1.777779        -1.218430
 C         2.554476         0.383640        -1.026079
 H        -0.567910        -0.062102         1.004596
 H        -0.383424         1.460846         0.242974
 H        -0.618167        -0.085612        -0.827905
 H         4.149821        -1.237537        -0.136685
 H         2.411341         0.122964         2.128568
 H         2.296495         2.545758         1.842328
 H         3.985947         2.211488         1.438196
 H         2.666068         2.170626        -2.090933
 H         4.120180         1.770831        -1.483779
 H         2.372561        -0.230773        -1.886782
