19
Iteration:  2190
 C         0.031538         0.498641        -0.054343
 C         1.419131         0.121209        -0.000169
 O         1.868517        -1.382553         0.072966
 C         3.118471        -0.595266         0.221116
 C         2.442723         0.456338         1.152840
 C         3.008425         1.851180         1.103699
 O         2.776244         2.619957        -0.025241
 C         2.859774         1.933125        -1.419185
 C         2.599670         0.419363        -1.065125
 H        -0.482830         0.237617         0.808631
 H         0.003167         1.668143         0.146403
 H        -0.308247         0.091155        -0.994284
 H         4.085294        -1.167008         0.401393
 H         2.267997         0.125078         2.164774
 H         2.468781         2.454784         1.792595
 H         4.145790         1.797076         1.329210
 H         2.312064         2.538171        -2.068118
 H         3.941932         1.936215        -1.660352
 H         2.735611        -0.149331        -2.041238
