19
Iteration:  2993charge 0 multiplicity 1
 C        -0.116400         0.468564        -0.016335
 C         1.427670         0.158206         0.091382
 O         1.860002        -1.350939         0.114052
 C         3.157023        -0.535659         0.056704
 C         2.657497         0.516849         1.079525
 C         2.965409         1.967564         1.115545
 O         2.727918         2.553825        -0.132187
 C         3.046734         1.752844        -1.224094
 C         2.495694         0.384728        -1.095391
 H        -0.537500         0.364107         0.947093
 H        -0.144963         1.562362        -0.359685
 H        -0.543614        -0.169440        -0.734344
 H         4.130804        -0.914720         0.105089
 H         2.407336         0.063330         2.072026
 H         2.148651         2.345101         1.904660
 H         4.019088         2.406808         1.437426
 H         2.534076         2.311683        -2.076967
 H         4.123556         1.862866        -1.168888
 H         2.100572        -0.091947        -2.018268
