19
Iteration:  1282
 C        -0.051523         0.368753         0.038406
 C         1.414652         0.181122         0.011369
 O         1.776301        -1.258429         0.132550
 C         3.172049        -0.581440         0.036016
 C         2.512801         0.467896         1.082132
 C         2.968834         1.862009         1.098644
 O         2.731840         2.597921        -0.064304
 C         3.141532         1.897577        -1.243253
 C         2.517654         0.409924        -1.117085
 H        -0.511220        -0.023376         0.893934
 H        -0.233817         1.581710         0.012768
 H        -0.434753        -0.082203        -0.832095
 H         4.071995        -1.030070         0.129794
 H         2.288344        -0.016845         2.040042
 H         2.324399         2.336583         1.835651
 H         4.010694         1.848106         1.500776
 H         2.793234         2.447741        -2.117176
 H         4.301438         1.792884        -1.417305
 H         2.389163        -0.004716        -2.104588
