19
Iteration:  1477charge 0 multiplicity 1
 C        -0.140870         0.435791        -0.016126
 C         1.387251         0.150473        -0.023307
 O         1.937798        -1.267951         0.096909
 C         3.095574        -0.489106         0.062668
 C         2.488034         0.458719         1.129125
 C         3.046443         1.832508         1.127549
 O         2.774297         2.590174        -0.084727
 C         2.953319         1.835115        -1.235882
 C         2.635233         0.413099        -1.081890
 H        -0.714536         0.019848         0.804881
 H        -0.034480         1.612696         0.279850
 H        -0.702544         0.278401        -0.954408
 H         4.048922        -1.125394         0.225134
 H         2.229404        -0.088155         1.994327
 H         2.571921         2.488844         1.942200
 H         4.051707         1.730200         1.434271
 H         2.342927         2.273822        -2.075991
 H         3.988007         1.800120        -1.528432
 H         2.495175        -0.232966        -1.956310
