19
Iteration:   832charge 0 multiplicity 1
 C        -0.100724         0.374099        -0.005393
 C         1.433705         0.130996        -0.059238
 O         1.901725        -1.270579         0.085087
 C         3.089235        -0.408399         0.161816
 C         2.394181         0.473233         1.102275
 C         3.092451         1.815721         1.174476
 O         2.827502         2.611661        -0.071551
 C         2.952834         1.836796        -1.277073
 C         2.545605         0.373313        -1.075736
 H        -0.555563        -0.147180         0.858552
 H        -0.265543         1.431301         0.111598
 H        -0.576641         0.162909        -1.029640
 H         4.031218        -0.938995         0.045565
 H         2.088026         0.065933         2.084267
 H         2.981035         2.535611         1.997671
 H         4.163975         1.648251         1.105223
 H         2.248729         2.453616        -1.994474
 H         3.987001         1.861164        -1.689497
 H         2.589832        -0.127924        -2.048173
