19
Iteration:   400charge 0 multiplicity 1
 C        -0.163266         0.537516         0.132681
 C         1.378327         0.079717        -0.029158
 O         1.975993        -1.345542        -0.018222
 C         3.171174        -0.499465         0.076865
 C         2.397299         0.489241         1.125107
 C         3.021282         1.864974         1.147728
 O         2.774086         2.564593        -0.126203
 C         3.062585         1.813193        -1.206155
 C         2.531256         0.444044        -1.114297
 H        -0.459884         0.451502         1.211015
 H        -0.277291         1.705198        -0.114315
 H        -0.821837        -0.025317        -0.402639
 H         4.175246        -0.867652         0.138490
 H         2.123925         0.035076         2.106014
 H         2.484013         2.418465         1.846697
 H         4.106017         1.664765         1.458408
 H         2.582658         2.277343        -2.107553
 H         4.083659         1.665516        -1.448099
 H         2.467435        -0.033470        -2.069917
