19
Iteration:  4440charge 0 multiplicity 1
 C        -0.087235         0.527153        -0.116729
 C         1.418071         0.130162         0.057440
 O         1.859707        -1.326769         0.192838
 C         3.203449        -0.396318         0.110585
 C         2.582455         0.486601         1.109738
 C         3.041165         1.916906         1.108649
 O         2.676335         2.541625        -0.149851
 C         3.022942         1.801378        -1.267288
 C         2.450336         0.315141        -1.048550
 H        -0.532617         0.266650         0.805944
 H        -0.141416         1.609544         0.001051
 H        -0.485059         0.030786        -0.949970
 H         4.126855        -0.965831         0.263083
 H         2.385234        -0.093586         2.011704
 H         2.584574         2.470851         1.850637
 H         4.261734         1.863963         1.186738
 H         2.451042         2.197990        -2.064249
 H         4.173646         1.705322        -1.414839
 H         2.266586        -0.344983        -1.914746
