19
Iteration:  4988
 C        -0.089944         0.361766        -0.095893
 C         1.451250         0.164768         0.034424
 O         1.845314        -1.258606         0.193536
 C         3.094494        -0.564100         0.163532
 C         2.568869         0.455463         1.134594
 C         3.041001         2.000694         1.111815
 O         2.848910         2.652192        -0.191819
 C         2.948920         1.781151        -1.277432
 C         2.489720         0.380536        -1.034924
 H        -0.568391        -0.377408         0.517210
 H        -0.581755         1.433177         0.208138
 H        -0.381955         0.023230        -1.066346
 H         4.031981        -1.221374         0.114822
 H         2.367192         0.026656         2.082659
 H         2.689430         2.691508         1.961101
 H         4.173517         1.967398         1.408061
 H         2.298334         2.170680        -2.048371
 H         3.907164         1.665163        -1.758552
 H         2.156024        -0.083265        -1.968623
