19
Iteration:  3758charge 0 multiplicity 1
 C         0.012444         0.365272        -0.053529
 C         1.406722         0.172450         0.063259
 O         1.851207        -1.389111         0.161688
 C         3.075935        -0.447296         0.145926
 C         2.449139         0.542616         1.131171
 C         3.057689         1.954662         1.128419
 O         2.833563         2.613116        -0.184356
 C         2.988140         1.814515        -1.273052
 C         2.468333         0.365250        -1.106005
 H        -0.536766         0.187735         0.890298
 H        -0.301697         1.346230        -0.229311
 H        -0.338420        -0.216560        -0.927829
 H         4.063338        -0.792313         0.257993
 H         2.258268         0.041444         2.158876
 H         2.753998         2.659308         2.001769
 H         4.245519         1.675676         1.203561
 H         2.276271         2.235439        -1.965755
 H         4.111760         1.962699        -1.625912
 H         2.256398        -0.342657        -1.927401
