19
Iteration:  3929charge 0 multiplicity 1
 C        -0.028295         0.345422        -0.113104
 C         1.390357         0.108066         0.158463
 O         1.858564        -1.221793         0.183177
 C         3.099747        -0.443739         0.121232
 C         2.507263         0.560126         1.101797
 C         3.116332         1.935276         1.116695
 O         2.793388         2.578953        -0.107500
 C         2.955435         1.750289        -1.306567
 C         2.431268         0.379713        -1.108074
 H        -0.726494         0.055355         0.657331
 H        -0.282617         1.458087        -0.304960
 H        -0.262992        -0.289903        -0.954846
 H         4.059907        -0.957624         0.290464
 H         2.492176        -0.001437         1.969145
 H         2.655399         2.536097         1.772636
 H         4.134774         1.752165         1.249871
 H         2.680612         2.323046        -2.210625
 H         4.154492         1.520533        -1.419827
 H         2.241023        -0.176269        -1.990504
