19
Iteration:  4887
 C        -0.025793         0.509967         0.006603
 C         1.481014         0.215158         0.052358
 O         1.865060        -1.339254         0.222156
 C         3.070419        -0.562489         0.098154
 C         2.605157         0.440049         1.070078
 C         2.931218         1.977114         1.067767
 O         2.683411         2.554969        -0.156974
 C         3.100727         1.810804        -1.270108
 C         2.486145         0.369255        -1.111544
 H        -0.474516         0.422072         1.030579
 H        -0.383353         1.524709        -0.390570
 H        -0.369132        -0.343284        -0.687112
 H         3.947476        -1.165019         0.335190
 H         2.406870         0.072577         2.106903
 H         2.206209         2.436654         1.907603
 H         4.023457         2.103307         1.394642
 H         2.709702         2.263336        -2.239186
 H         4.114893         1.814361        -1.447036
 H         2.500752        -0.149444        -2.104952
