19
Iteration:   698charge 0 multiplicity 1
 C         0.040227         0.413355         0.069001
 C         1.437797         0.194908        -0.036925
 O         1.779782        -1.300103         0.025763
 C         3.144368        -0.528335         0.097020
 C         2.495657         0.489713         1.062758
 C         2.981787         1.934220         1.118557
 O         2.695293         2.614414        -0.033825
 C         3.136063         1.780010        -1.237183
 C         2.501908         0.387398        -1.090926
 H        -0.418321        -0.071424         1.002558
 H        -0.264709         1.454478         0.078323
 H        -0.481201        -0.126294        -0.802001
 H         4.026565        -1.103979         0.142992
 H         2.332699        -0.064240         1.997784
 H         2.386133         2.442337         1.908699
 H         4.109802         1.968308         1.319709
 H         2.482443         2.441070        -1.922410
 H         4.182636         1.769019        -1.496968
 H         2.431774        -0.239399        -1.982097
