19
Iteration:  3426
 C        -0.091368         0.537229        -0.100884
 C         1.387649         0.163773         0.064059
 O         1.901171        -1.343420         0.198961
 C         3.148269        -0.489146         0.070704
 C         2.586205         0.448848         1.190103
 C         3.048774         1.972682         1.084702
 O         2.697111         2.535530        -0.162548
 C         3.004542         1.805057        -1.300063
 C         2.478078         0.311311        -1.029172
 H        -0.695792        -0.104951         0.561130
 H        -0.249747         1.602494         0.178097
 H        -0.324378         0.195804        -1.108632
 H         4.113552        -0.840834        -0.069524
 H         2.462534         0.108950         2.259469
 H         2.541943         2.488832         1.917512
 H         4.175437         2.077482         1.406753
 H         2.467723         2.342643        -2.122571
 H         4.094654         1.901451        -1.508836
 H         2.339320        -0.297500        -1.938792
