19
Iteration:    37
 C        -0.040614         0.374035        -0.003770
 C         1.408451         0.134521        -0.004822
 O         1.857729        -1.237772         0.120265
 C         3.062006        -0.550139        -0.037669
 C         2.572042         0.469963         1.137569
 C         2.982825         1.916314         1.181299
 O         2.795040         2.585132        -0.078092
 C         3.099464         1.821706        -1.237537
 C         2.441389         0.453020        -1.062256
 H        -0.431205         0.316554         1.020265
 H        -0.173787         1.420238        -0.202506
 H        -0.664846        -0.363420        -0.768286
 H         3.966437        -1.273499        -0.261971
 H         2.366112        -0.191442         2.124617
 H         2.282618         2.494325         1.856588
 H         4.060038         2.055758         1.480134
 H         2.765515         2.443248        -2.148605
 H         4.202041         1.675441        -1.420684
 H         2.123417        -0.014105        -2.117322
