19
Iteration:   808
 C        -0.030815         0.419025        -0.083089
 C         1.432164         0.116203         0.039605
 O         1.890559        -1.346862         0.027163
 C         3.108581        -0.457315         0.129254
 C         2.428014         0.508174         1.107257
 C         3.089656         1.868458         1.142279
 O         2.844427         2.605401        -0.069631
 C         2.911178         1.831154        -1.225198
 C         2.490153         0.382587        -1.053740
 H        -0.547488        -0.035467         0.822762
 H        -0.133490         1.406878         0.038061
 H        -0.549619         0.203571        -1.027184
 H         4.005995        -0.924701         0.278098
 H         2.301113         0.226405         2.130971
 H         2.693149         2.521140         1.908569
 H         4.145362         1.805125         1.393718
 H         2.157131         2.438348        -1.921313
 H         3.900099         1.846776        -1.722830
 H         2.370476        -0.097379        -1.990725
