19
Iteration:  1097charge 0 multiplicity 1
 C         0.012607         0.431773        -0.029788
 C         1.457110         0.191402         0.088485
 O         1.810019        -1.345120         0.076859
 C         3.151455        -0.476430        -0.065287
 C         2.550336         0.461165         1.103003
 C         2.906027         1.913570         1.181658
 O         2.773466         2.622391        -0.073822
 C         3.079462         1.758765        -1.193233
 C         2.436265         0.399399        -1.078370
 H        -0.451273         0.171631         0.827755
 H        -0.163291         1.540656        -0.064553
 H        -0.415215        -0.025262        -0.821735
 H         4.047308        -1.110890        -0.129626
 H         2.550870        -0.098288         2.044847
 H         2.184353         2.459286         1.695255
 H         3.895381         2.040211         1.621629
 H         2.816280         2.405765        -2.051406
 H         4.211545         1.579701        -1.347659
 H         2.113435        -0.004781        -1.992081
