19
Iteration:  2849
 C        -0.023943         0.428805         0.108122
 C         1.471692         0.071083        -0.015407
 O         1.878025        -1.290085         0.067070
 C         3.141042        -0.509487         0.138319
 C         2.437382         0.459217         1.063456
 C         2.928807         1.951106         1.164521
 O         2.793919         2.650094        -0.173872
 C         3.064029         1.814452        -1.307950
 C         2.508741         0.390453        -1.042757
 H        -0.320581        -0.076356         1.037157
 H        -0.200447         1.433214         0.256205
 H        -0.592124         0.099362        -0.736566
 H         4.025937        -1.119711         0.157818
 H         2.194547        -0.088743         1.997224
 H         2.305296         2.648257         1.842588
 H         3.938531         1.824772         1.407694
 H         2.472478         2.286713        -2.176778
 H         4.131909         1.611709        -1.527322
 H         2.210350        -0.092558        -1.945569
