19
Iteration:  4668charge 0 multiplicity 1
 C        -0.063807         0.521271        -0.121751
 C         1.487606         0.209496         0.038857
 O         1.906660        -1.308630         0.222883
 C         3.124413        -0.539289         0.091364
 C         2.577225         0.432958         1.147882
 C         3.098329         1.944626         1.078742
 O         2.661071         2.590874        -0.100530
 C         2.962492         1.766162        -1.271524
 C         2.471188         0.321285        -1.068141
 H        -0.611062         0.332223         0.803145
 H        -0.133970         1.505057        -0.611571
 H        -0.372959        -0.045306        -1.022183
 H         4.069583        -1.050941         0.013978
 H         2.344555         0.091775         2.167956
 H         2.400933         2.490868         1.862812
 H         4.065430         2.124359         1.317402
 H         2.336546         2.241665        -2.013874
 H         4.108573         1.763468        -1.394534
 H         2.067035        -0.298404        -1.911501
