19
Iteration:  4382
 C        -0.083858         0.382080         0.102182
 C         1.355499         0.086872         0.093812
 O         1.864979        -1.289304         0.118356
 C         3.098235        -0.469831         0.026024
 C         2.478630         0.537755         1.116004
 C         2.939214         1.929996         1.095846
 O         2.843030         2.623176        -0.187340
 C         3.121514         1.771492        -1.273815
 C         2.558065         0.363803        -1.093617
 H        -0.531652        -0.069227         1.027077
 H        -0.167651         1.421606         0.000190
 H        -0.805401         0.093421        -0.715678
 H         3.943467        -1.089346         0.156878
 H         2.244784         0.023593         2.099217
 H         2.286169         2.545713         1.757334
 H         3.985776         2.179438         1.601106
 H         2.668086         2.190671        -2.178157
 H         4.252824         1.929421        -1.519376
 H         2.437381        -0.242516        -2.017525
