19
Iteration:  2970
 C        -0.056028         0.398694         0.022648
 C         1.384119         0.126813         0.036748
 O         1.869286        -1.225338         0.126272
 C         3.119917        -0.495626         0.011550
 C         2.480139         0.499173         1.161775
 C         3.045546         1.902111         1.108951
 O         2.708346         2.597147        -0.127495
 C         3.060449         1.798314        -1.287234
 C         2.548191         0.350760        -1.068523
 H        -0.436926         0.218916         1.032071
 H        -0.296299         1.400445        -0.417731
 H        -0.390030        -0.399165        -0.648793
 H         4.046470        -0.999300        -0.046658
 H         2.252969         0.005663         2.139033
 H         2.560857         2.591387         1.940477
 H         4.205299         1.932496         1.339162
 H         2.625104         2.374468        -2.127937
 H         4.181418         1.803177        -1.202066
 H         2.263665        -0.286199        -1.912593
