19
Iteration:  3001
 C        -0.012389         0.511363         0.018434
 C         1.427166         0.099650         0.090282
 O         1.876611        -1.311157         0.126627
 C         3.151677        -0.544119        -0.038090
 C         2.563528         0.496983         1.086225
 C         2.972005         2.012328         1.111667
 O         2.707557         2.598250        -0.111566
 C         3.029844         1.800903        -1.218861
 C         2.501571         0.269205        -1.064693
 H        -0.690657         0.300918         0.919097
 H        -0.133414         1.559265        -0.364645
 H        -0.459214        -0.176599        -0.810875
 H         4.120738        -1.081666        -0.017183
 H         2.375959         0.133380         2.108902
 H         2.226522         2.524312         1.755939
 H         3.867953         2.161343         1.704651
 H         2.705746         2.295538        -2.072120
 H         4.135883         1.687780        -1.420734
 H         2.150739        -0.204975        -1.955224
