19
Iteration:   147
 C        -0.054214         0.496378        -0.072531
 C         1.411845         0.104764         0.087495
 O         1.904816        -1.366857         0.140061
 C         3.100429        -0.470138        -0.008484
 C         2.474384         0.451237         1.083622
 C         3.063541         1.868190         1.149986
 O         2.752489         2.706189        -0.079716
 C         3.033509         1.821721        -1.218785
 C         2.425833         0.332085        -1.069198
 H        -0.619272        -0.072702         0.670071
 H        -0.081951         1.553094         0.033583
 H        -0.475265         0.344881        -1.102274
 H         4.171545        -0.962134         0.003895
 H         2.319381        -0.144656         2.087045
 H         2.809167         2.481740         2.056811
 H         4.173001         1.803108         1.174233
 H         2.698773         2.403474        -2.142167
 H         4.095324         1.639447        -1.168006
 H         2.170556        -0.174773        -2.092652
