19
Iteration:   929charge 0 multiplicity 1
 C         0.071357         0.501828         0.138793
 C         1.450567         0.139265        -0.037883
 O         1.844841        -1.330314        -0.009286
 C         3.152545        -0.541374         0.089508
 C         2.412622         0.482629         1.054542
 C         2.892971         1.871192         1.143352
 O         2.738370         2.616384        -0.097811
 C         3.089783         1.819162        -1.252367
 C         2.514266         0.364458        -1.030410
 H        -0.242302         0.371031         1.176190
 H         0.066788         1.524687        -0.040066
 H        -0.606227        -0.044318        -0.589414
 H         4.058336        -1.094113         0.249404
 H         2.100299         0.112336         2.048543
 H         2.407323         2.528685         1.884725
 H         4.003651         1.838593         1.248243
 H         2.347412         2.196223        -2.110906
 H         4.105057         2.042301        -1.490775
 H         2.662427        -0.150838        -2.025808
