19
Iteration:   437
 C        -0.044733         0.401099        -0.033600
 C         1.458873         0.168598         0.001048
 O         1.787527        -1.269382         0.145745
 C         3.143642        -0.559296         0.043458
 C         2.605279         0.428631         1.078553
 C         3.066766         1.840476         1.140680
 O         2.763592         2.642022        -0.074399
 C         2.980835         1.830301        -1.212237
 C         2.466170         0.426058        -1.068601
 H        -0.556356        -0.128641         0.752854
 H        -0.398239         1.424130        -0.200798
 H        -0.376761        -0.128455        -1.039098
 H         3.905447        -1.389536        -0.067259
 H         2.284079         0.190732         2.106688
 H         2.559605         2.543432         1.900688
 H         4.122771         2.104278         1.465688
 H         2.524657         2.359836        -2.029550
 H         4.082026         1.910465        -1.347047
 H         2.160111         0.271208        -2.162822
