19
Iteration:  1584charge 0 multiplicity 1
 C        -0.162961         0.510144         0.109618
 C         1.413333         0.084087         0.021112
 O         1.906667        -1.330062         0.029602
 C         3.101252        -0.549684         0.065754
 C         2.476118         0.390218         1.073371
 C         2.909325         1.884862         1.157903
 O         2.803556         2.658779        -0.119702
 C         3.078797         1.876716        -1.264514
 C         2.599555         0.417181        -1.066511
 H        -0.337462         0.229349         1.168324
 H        -0.294380         1.462227        -0.176394
 H        -0.798692        -0.145445        -0.548725
 H         4.091612        -1.102997        -0.020292
 H         2.517218        -0.106471         2.061179
 H         2.124052         2.408390         1.530940
 H         3.983227         2.017120         1.651570
 H         2.752167         2.505290        -2.059313
 H         4.297302         1.791936        -1.401205
 H         2.561780        -0.130108        -2.020859
