19
Iteration:  4298charge 0 multiplicity 1
 C        -0.079651         0.417904        -0.042799
 C         1.438150         0.123159         0.005028
 O         1.870552        -1.255813         0.112451
 C         3.147252        -0.458922         0.148311
 C         2.469009         0.539702         1.101471
 C         3.055824         1.926057         1.111227
 O         2.749391         2.580351        -0.083759
 C         2.947782         1.722079        -1.323296
 C         2.578724         0.354433        -1.061566
 H        -0.472708         0.256756         0.986438
 H        -0.195679         1.627989        -0.070109
 H        -0.535848        -0.101322        -0.885632
 H         3.988021        -1.222315         0.335116
 H         2.144450         0.284469         2.154091
 H         2.889776         2.554995         2.058200
 H         4.158633         1.790261         1.187765
 H         2.163012         2.073361        -2.058337
 H         4.087972         1.824397        -1.524733
 H         2.414098        -0.222691        -1.996234
