19
Iteration:  4540
 C        -0.062081         0.395352         0.056541
 C         1.421071         0.045783         0.031510
 O         1.868538        -1.254465         0.157562
 C         3.109821        -0.485382         0.050926
 C         2.487113         0.481023         1.072001
 C         2.913492         1.980791         1.064906
 O         2.861207         2.644076        -0.168436
 C         3.041788         1.749472        -1.189986
 C         2.492474         0.377047        -1.089667
 H        -0.551162         0.050808         0.965174
 H        -0.054840         1.547059         0.098809
 H        -0.539386        -0.212212        -0.659399
 H         4.186035        -0.871457         0.189775
 H         2.341198         0.054887         2.067796
 H         2.314542         2.421429         1.771555
 H         3.896339         2.092429         1.372876
 H         2.815363         2.158969        -2.169635
 H         4.186147         1.697059        -1.495654
 H         2.132603        -0.148855        -2.016079
