19
Iteration:  4398
 C        -0.105261         0.445117         0.121279
 C         1.430609         0.113808        -0.052394
 O         1.785566        -1.331827         0.101882
 C         3.133930        -0.524174         0.173739
 C         2.521308         0.432608         1.084586
 C         2.939260         1.999717         1.082654
 O         2.808207         2.662533        -0.161738
 C         3.045869         1.783721        -1.305673
 C         2.609156         0.347209        -1.049070
 H        -0.538104        -0.001608         0.991028
 H        -0.330738         1.573824         0.229715
 H        -0.527255        -0.111255        -0.661038
 H         4.183645        -1.018344         0.151016
 H         2.470140         0.206810         2.115527
 H         2.284342         2.559575         1.750673
 H         4.002708         2.006972         1.379004
 H         2.594938         2.316919        -2.166900
 H         4.066962         1.706399        -1.575834
 H         2.638601        -0.156656        -2.012193
