19
Iteration:  1380charge 0 multiplicity 1
 C         0.023411         0.386109        -0.007152
 C         1.429273         0.156134        -0.062800
 O         1.806194        -1.316240         0.000497
 C         3.124155        -0.533778         0.110226
 C         2.462985         0.514525         1.139919
 C         3.040327         1.950955         1.144391
 O         2.750606         2.619390        -0.069388
 C         3.026645         1.810386        -1.226561
 C         2.485527         0.390912        -1.054762
 H        -0.250277         0.142844         0.905838
 H        -0.066134         1.507088        -0.101282
 H        -0.481299        -0.175030        -0.654766
 H         4.072476        -0.953285         0.008871
 H         2.316063        -0.008445         2.060330
 H         2.610568         2.461104         2.067408
 H         4.149715         1.932436         1.307749
 H         2.547715         2.266082        -2.051736
 H         4.140430         1.670305        -1.175456
 H         2.184900        -0.243419        -1.881223
