19
Iteration:  3950
 C        -0.131105         0.357745        -0.085296
 C         1.396861         0.113453        -0.004518
 O         1.873309        -1.355048         0.252325
 C         3.111417        -0.483718         0.085567
 C         2.473460         0.535474         1.140893
 C         3.110349         1.978587         1.074904
 O         2.840340         2.645901        -0.127343
 C         3.011226         1.795974        -1.256307
 C         2.465996         0.378035        -1.035243
 H        -0.739158         0.058668         0.767756
 H        -0.279430         1.566599        -0.203779
 H        -0.416553        -0.154535        -0.984151
 H         4.118748        -0.967993        -0.096495
 H         2.356981         0.076545         2.050195
 H         2.647656         2.530698         1.793684
 H         4.173565         1.891527         1.127478
 H         2.396172         2.132361        -2.120178
 H         4.119794         1.826900        -1.556365
 H         2.193160        -0.169561        -1.901052
