19
Iteration:  4303charge 0 multiplicity 1
 C        -0.038862         0.396979        -0.032883
 C         1.448668         0.139818        -0.021366
 O         1.874154        -1.238290         0.110495
 C         3.085974        -0.483613         0.181925
 C         2.479646         0.524265         1.094057
 C         3.056608         1.924693         1.119566
 O         2.764394         2.615853        -0.089871
 C         2.975588         1.714857        -1.324098
 C         2.559537         0.350669        -1.016470
 H        -0.549307         0.216251         0.915041
 H        -0.143084         1.426783        -0.052670
 H        -0.621712        -0.178397        -0.783222
 H         3.957286        -1.119438         0.268886
 H         2.175714         0.073541         2.014325
 H         2.686434         2.557380         1.989703
 H         4.149715         1.788986         0.927697
 H         2.301650         2.151461        -2.093215
 H         3.987583         1.895067        -1.649211
 H         2.282118        -0.111254        -1.965701
