19
Iteration:  2224charge 0 multiplicity 1
 C        -0.015211         0.398552        -0.053410
 C         1.410239         0.154830        -0.009470
 O         1.834861        -1.294774         0.086840
 C         3.100850        -0.446549         0.055495
 C         2.466820         0.517360         1.073623
 C         3.066961         1.942235         1.120836
 O         2.772591         2.586852        -0.029546
 C         2.949711         1.756703        -1.216426
 C         2.533443         0.379814        -1.022866
 H        -0.436631        -0.228489         0.676581
 H        -0.336500         1.484459        -0.193840
 H        -0.516311         0.028813        -0.974130
 H         4.133390        -0.969169         0.022224
 H         2.400666         0.176951         2.102683
 H         2.751105         2.501554         1.923266
 H         4.181330         1.713873         1.411280
 H         2.501147         2.205259        -2.029427
 H         4.050302         1.694577        -1.344358
 H         2.639119        -0.162488        -1.973772
