19
Iteration:  1780
 C        -0.025545         0.427253         0.101436
 C         1.462859         0.151748         0.015141
 O         1.839181        -1.292373         0.068051
 C         3.097035        -0.547749        -0.001279
 C         2.389390         0.494278         1.038460
 C         2.889353         1.902862         1.147426
 O         2.766297         2.630576        -0.101646
 C         3.150020         1.811994        -1.236754
 C         2.601012         0.386391        -1.092787
 H        -0.214410         0.240430         1.241472
 H        -0.231557         1.390545        -0.147107
 H        -0.673509        -0.385182        -0.407955
 H         4.075935        -1.011937         0.232436
 H         2.181753        -0.071126         1.970383
 H         2.483578         2.536949         1.961659
 H         3.981094         1.885893         1.423422
 H         2.494293         2.240382        -2.022688
 H         4.280039         1.928344        -1.404629
 H         2.410291        -0.133492        -2.068096
