19
Iteration:  1567charge 0 multiplicity 1
 C        -0.006408         0.444970         0.121173
 C         1.432424         0.113848        -0.046480
 O         1.872201        -1.363060        -0.015013
 C         3.123687        -0.456256         0.055396
 C         2.424390         0.483428         1.048699
 C         2.920623         1.921840         1.136982
 O         2.783186         2.639288        -0.058676
 C         3.087621         1.778765        -1.211166
 C         2.548613         0.373089        -1.080010
 H        -0.432098         0.342592         1.120513
 H        -0.099030         1.654520        -0.107518
 H        -0.652913        -0.095520        -0.543057
 H         4.042885        -1.048854         0.200134
 H         2.081978         0.128182         2.024437
 H         2.554467         2.518852         2.093932
 H         3.958754         1.909843         1.345872
 H         2.384344         2.153290        -2.019454
 H         4.120637         1.846547        -1.306091
 H         2.431569        -0.197028        -2.024423
