19
Iteration:  4590
 C        -0.060611         0.402667         0.037233
 C         1.423548         0.085979         0.051507
 O         1.813528        -1.270319         0.141361
 C         3.211242        -0.395945         0.070541
 C         2.450604         0.533869         1.058341
 C         2.947157         1.920584         1.127570
 O         2.802361         2.608977        -0.186224
 C         3.061547         1.743050        -1.278246
 C         2.482496         0.375609        -1.011177
 H        -0.460601        -0.321783         0.819424
 H        -0.118305         1.485266         0.179776
 H        -0.602332        -0.003846        -0.895657
 H         4.080269        -0.974751        -0.070801
 H         2.326755         0.178044         2.105729
 H         2.516181         2.567780         2.062885
 H         4.122917         1.803587         1.372422
 H         2.671521         2.208697        -2.207620
 H         4.130836         1.616332        -1.618963
 H         2.528653        -0.410909        -1.791909
