19
Iteration:  2934
 C        -0.146333         0.354033        -0.037339
 C         1.389340         0.083055        -0.030908
 O         1.887137        -1.285024         0.105600
 C         3.099088        -0.487289         0.154394
 C         2.476108         0.468510         1.160326
 C         3.129225         1.923352         1.100899
 O         2.830023         2.696448        -0.113698
 C         2.933014         1.859380        -1.276356
 C         2.573835         0.335398        -1.052419
 H        -0.575046         0.029463         1.052973
 H        -0.423507         1.390194        -0.042418
 H        -0.932936        -0.244990        -0.752039
 H         4.061666        -1.080754        -0.035349
 H         2.140124         0.123354         2.120705
 H         2.666277         2.466479         1.909192
 H         4.309959         2.015905         1.207652
 H         2.548700         2.171960        -2.156651
 H         4.045458         1.920860        -1.561783
 H         2.482977        -0.257471        -1.927653
