19
Iteration:  2029
 C        -0.071789         0.424234        -0.143944
 C         1.405123         0.144314         0.089278
 O         1.895957        -1.354103         0.114426
 C         3.091403        -0.488918         0.048017
 C         2.575149         0.475951         1.068269
 C         2.976531         1.924000         1.212782
 O         2.913322         2.647642        -0.048831
 C         2.921217         1.788457        -1.287739
 C         2.478875         0.362633        -1.025777
 H        -0.715678        -0.038982         0.585548
 H        -0.225648         1.484077        -0.109533
 H        -0.204885         0.216369        -1.213106
 H         4.093908        -0.960608         0.209333
 H         2.471460         0.092645         2.091767
 H         2.169085         2.504222         1.762465
 H         4.046229         1.935434         1.588277
 H         2.064989         2.165410        -1.861074
 H         3.890164         1.884088        -1.769534
 H         2.198518         0.000702        -1.951574
