19
Iteration:  1576charge 0 multiplicity 1
 C        -0.066145         0.467938         0.136552
 C         1.367883         0.125804         0.004087
 O         1.879380        -1.370781        -0.007138
 C         3.135609        -0.522775         0.053564
 C         2.426241         0.437177         1.070266
 C         2.942113         1.911502         1.144453
 O         2.790704         2.667096        -0.114732
 C         3.054908         1.825305        -1.189364
 C         2.617873         0.369970        -1.091284
 H        -0.373858         0.352318         1.131337
 H        -0.208196         1.613809        -0.164247
 H        -0.647126        -0.084785        -0.534731
 H         4.216016        -0.861055         0.224735
 H         2.241968        -0.050680         2.007056
 H         2.218924         2.467770         1.888551
 H         3.967762         1.902283         1.511070
 H         2.714415         2.338401        -2.106787
 H         4.101703         1.740900        -1.512352
 H         2.550903         0.008008        -2.130952
