19
Iteration:  2946
 C        -0.071650         0.364358         0.026079
 C         1.355846         0.100131        -0.111050
 O         1.861345        -1.340517         0.100670
 C         3.062411        -0.486807         0.154244
 C         2.500132         0.544457         1.086778
 C         3.109327         1.928650         1.083820
 O         2.766908         2.667051        -0.099823
 C         3.008821         1.817632        -1.252897
 C         2.515499         0.388296        -1.031336
 H        -0.293002         0.037118         1.125271
 H        -0.312004         1.379656        -0.229346
 H        -0.541694        -0.388344        -0.755702
 H         4.029827        -0.991683         0.373555
 H         2.386599         0.145084         2.090468
 H         2.780183         2.580001         1.946191
 H         4.277164         1.785918         1.247284
 H         2.424858         2.313930        -1.935722
 H         4.125319         1.736012        -1.496734
 H         2.546570        -0.148464        -1.942386
