19
Iteration:  3325charge 0 multiplicity 1
 C        -0.156587         0.404487         0.012125
 C         1.366662         0.149373         0.070942
 O         1.875051        -1.277177         0.171171
 C         3.162118        -0.520093         0.042001
 C         2.561767         0.467408         1.057591
 C         2.957337         1.979221         1.059938
 O         2.856196         2.647371        -0.120713
 C         3.033180         1.786039        -1.240837
 C         2.543505         0.326884        -1.087369
 H        -0.568258         0.255059         1.060026
 H        -0.346158         1.316374        -0.469881
 H        -0.602672        -0.429225        -0.654017
 H         3.936025        -1.167635         0.055763
 H         2.458526         0.096448         2.079642
 H         2.222003         2.414549         1.815658
 H         3.990584         2.102640         1.705515
 H         2.558680         2.402825        -2.062527
 H         4.089164         1.805474        -1.409382
 H         2.198870        -0.284839        -1.993901
