19
Iteration:   525
 C         0.028814         0.454055         0.085346
 C         1.414574         0.130934        -0.055961
 O         1.828470        -1.264980         0.009863
 C         3.111247        -0.521759         0.083367
 C         2.477633         0.506778         1.109892
 C         2.958405         1.892054         1.142136
 O         2.781614         2.578437        -0.113033
 C         2.991690         1.795597        -1.204375
 C         2.596060         0.387398        -1.087783
 H        -0.219691         0.067773         1.112358
 H        -0.022359         1.512753         0.048207
 H        -0.757588         0.001308        -0.656903
 H         3.971580        -1.202977         0.161764
 H         2.364950         0.129764         2.108041
 H         2.332528         2.385972         1.901288
 H         3.990763         2.024057         1.628784
 H         2.456804         2.131018        -2.037900
 H         4.038125         1.866304        -1.522189
 H         2.388909        -0.120188        -2.063468
