19
Iteration:  2910
 C         0.000471         0.388253        -0.036435
 C         1.379025         0.108567         0.065494
 O         1.896114        -1.296412         0.129181
 C         3.046877        -0.431708         0.089805
 C         2.479386         0.531427         1.067264
 C         3.025575         1.921115         1.124934
 O         2.881551         2.564597        -0.100422
 C         2.941562         1.822179        -1.282965
 C         2.472965         0.391322        -1.021407
 H        -0.603248        -0.242096         0.714864
 H        -0.428115         1.428148        -0.049395
 H        -0.251544        -0.223616        -1.017449
 H         4.100454        -0.897007         0.185220
 H         2.554256         0.072265         2.050100
 H         2.545971         2.464831         1.887986
 H         4.165880         1.957218         1.403156
 H         2.370386         2.183913        -2.144745
 H         3.964788         1.951997        -1.720609
 H         2.236330        -0.207217        -1.937641
