19
Iteration:   659charge 0 multiplicity 1
 C        -0.042409         0.492093        -0.130302
 C         1.408002         0.079493         0.121620
 O         1.902698        -1.376574         0.142563
 C         3.124989        -0.435489         0.027604
 C         2.520894         0.449617         1.060378
 C         3.040127         1.910876         1.133189
 O         2.800537         2.622004        -0.030787
 C         2.967626         1.803135        -1.255571
 C         2.413440         0.388326        -1.058776
 H        -0.703666        -0.079970         0.562318
 H        -0.209906         1.539278         0.109215
 H        -0.326723         0.263083        -1.214880
 H         4.149896        -0.901374        -0.003753
 H         2.388570         0.144550         2.099728
 H         2.556417         2.380017         2.010667
 H         4.094243         1.945107         1.390714
 H         2.564703         2.326152        -2.061758
 H         4.104695         1.801201        -1.511238
 H         2.183982        -0.054759        -2.033796
