19
Iteration:   453charge 0 multiplicity 1
 C        -0.066503         0.362965        -0.142688
 C         1.423178         0.221271         0.113076
 O         1.784843        -1.232528         0.166386
 C         3.041506        -0.578360        -0.046208
 C         2.659272         0.479387         1.093107
 C         3.112720         1.916517         1.171528
 O         2.727294         2.582092        -0.037101
 C         3.012447         1.844749        -1.229302
 C         2.518052         0.362149        -1.075986
 H        -0.649637        -0.227944         0.614063
 H        -0.490752         1.433588        -0.046501
 H        -0.391018         0.068805        -1.116609
 H         4.012849        -1.020042        -0.055423
 H         2.701167        -0.124652         2.004218
 H         2.563093         2.413102         1.948863
 H         4.134946         1.985763         1.486437
 H         2.328570         2.374061        -1.976287
 H         4.055501         1.961174        -1.659511
 H         2.377293        -0.207735        -1.955840
