19
Iteration:  1382
 C         0.009533         0.386672        -0.017600
 C         1.437910         0.145060        -0.045878
 O         1.809159        -1.306996         0.006164
 C         3.144181        -0.518410         0.092605
 C         2.458314         0.515970         1.139401
 C         3.036784         1.945875         1.152670
 O         2.749486         2.607524        -0.076743
 C         3.039638         1.818004        -1.233098
 C         2.475349         0.387659        -1.042855
 H        -0.249756         0.157218         0.973192
 H        -0.048214         1.510756        -0.105457
 H        -0.522419        -0.215418        -0.662827
 H         4.023034        -0.997863        -0.031854
 H         2.275340        -0.029625         2.074570
 H         2.636343         2.443096         2.010167
 H         4.104009         1.953501         1.316420
 H         2.594077         2.313711        -2.085983
 H         4.154013         1.617597        -1.099840
 H         2.116594        -0.178236        -1.899493
