19
Iteration:  2228charge 0 multiplicity 1
 C        -0.021208         0.408223        -0.068336
 C         1.427635         0.125851         0.015953
 O         1.832787        -1.289785         0.097668
 C         3.098135        -0.439379         0.078304
 C         2.488315         0.526702         1.072086
 C         3.059199         1.934188         1.152993
 O         2.772326         2.574955        -0.041045
 C         2.989116         1.780787        -1.219336
 C         2.476498         0.400273        -1.095839
 H        -0.580260        -0.291298         0.737085
 H        -0.380622         1.418061        -0.108002
 H        -0.419554        -0.133581        -1.027918
 H         4.109071        -1.023707         0.098866
 H         2.494737         0.079406         2.107599
 H         2.797678         2.572111         2.051480
 H         4.081144         1.760360         1.378265
 H         2.685259         2.329989        -2.177216
 H         4.071736         1.698822        -1.342912
 H         2.487420        -0.256769        -1.943616
