19
Iteration:  2919
 C        -0.150327         0.334858        -0.016123
 C         1.388779         0.118455         0.071577
 O         1.864557        -1.302484         0.117808
 C         3.160459        -0.482942         0.072397
 C         2.472095         0.532022         1.103613
 C         3.047548         1.923893         1.127409
 O         2.848889         2.623137        -0.111544
 C         2.991958         1.787775        -1.307020
 C         2.535389         0.411042        -1.036327
 H        -0.686359        -0.065149         0.827665
 H        -0.239538         1.465366        -0.121445
 H        -0.364993        -0.074337        -0.993997
 H         4.123933        -0.989298         0.317443
 H         2.403834         0.074633         2.125076
 H         2.635876         2.619490         1.851063
 H         4.102731         1.717044         1.258778
 H         2.143233         2.366433        -1.858741
 H         3.983872         1.951057        -1.747952
 H         2.379835        -0.145936        -2.034619
