19
Iteration:   464charge 0 multiplicity 1
 C        -0.055086         0.413517        -0.128959
 C         1.420478         0.153411         0.089888
 O         1.775889        -1.276348         0.122131
 C         3.137945        -0.430044         0.015482
 C         2.600022         0.473046         1.143247
 C         3.162768         1.883093         1.255376
 O         2.726566         2.626186        -0.058402
 C         2.948376         1.774417        -1.266949
 C         2.463218         0.331761        -1.147200
 H        -0.628035        -0.301841         0.514572
 H        -0.359323         1.494125         0.099866
 H        -0.233199         0.135571        -1.153856
 H         4.035888        -1.026179         0.069227
 H         2.587878        -0.001672         2.136174
 H         2.713441         2.534460         1.953138
 H         4.233547         1.867486         1.352114
 H         2.428108         2.299793        -2.134904
 H         4.067544         1.847470        -1.386904
 H         2.223342        -0.084506        -2.087235
