19
Iteration:   963charge 0 multiplicity 1
 C        -0.129906         0.476456        -0.093411
 C         1.414985         0.156491         0.020658
 O         1.861307        -1.269096         0.101826
 C         3.143432        -0.556418         0.060793
 C         2.588823         0.493722         1.080949
 C         3.061725         1.904811         1.130179
 O         2.732521         2.551670        -0.034392
 C         2.988873         1.865062        -1.207358
 C         2.530938         0.345354        -1.026376
 H        -0.752871         0.086491         0.669448
 H        -0.168549         1.580765        -0.117254
 H        -0.585744         0.079519        -1.044492
 H         4.172815        -1.037232         0.212997
 H         2.397723         0.088572         2.136544
 H         2.577115         2.304123         2.066843
 H         4.170967         1.946209         1.363207
 H         2.364400         2.115898        -2.226708
 H         3.939762         1.802829        -1.716282
 H         2.442766        -0.162845        -2.095100
