19
Iteration:  1028charge 0 multiplicity 1
 C        -0.149582         0.389133         0.010128
 C         1.427962         0.159470        -0.071255
 O         1.812885        -1.255206        -0.004187
 C         3.124263        -0.543525         0.111700
 C         2.511036         0.493891         1.131692
 C         3.040821         1.896809         1.203228
 O         2.793433         2.606356        -0.072589
 C         2.991393         1.790009        -1.251671
 C         2.654181         0.379076        -1.050680
 H        -0.509060        -0.028448         0.951092
 H        -0.367493         1.474149         0.099851
 H        -0.769175        -0.186255        -0.746451
 H         4.119124        -0.933773         0.274692
 H         2.191423         0.098709         2.157831
 H         2.571567         2.593993         1.948941
 H         4.142055         1.890678         1.257558
 H         2.539486         2.511054        -2.057283
 H         4.067015         1.970195        -1.737656
 H         2.360848        -0.237254        -2.012891
