19
Iteration:  4669charge 0 multiplicity 1
 C        -0.064456         0.517786        -0.122860
 C         1.482858         0.217541         0.034257
 O         1.914054        -1.314285         0.221385
 C         3.124197        -0.536485         0.091726
 C         2.575114         0.430695         1.149615
 C         3.096532         1.939400         1.080972
 O         2.662249         2.601564        -0.105501
 C         2.964219         1.759349        -1.261401
 C         2.465538         0.316669        -1.069334
 H        -0.600661         0.360849         0.825343
 H        -0.178632         1.578806        -0.617298
 H        -0.371474        -0.049393        -1.016258
 H         4.084507        -1.066143         0.022762
 H         2.356007         0.070449         2.153619
 H         2.399682         2.466971         1.848120
 H         4.096024         2.167269         1.300149
 H         2.356904         2.232533        -2.001115
 H         4.085515         1.768036        -1.384981
 H         2.070888        -0.316870        -1.905945
