19
Iteration:  3423
 C        -0.052045         0.522764        -0.099344
 C         1.394972         0.165425         0.066744
 O         1.896015        -1.310132         0.191725
 C         3.138171        -0.484692         0.068998
 C         2.569714         0.457898         1.179972
 C         3.074759         1.944350         1.091359
 O         2.692351         2.556493        -0.161239
 C         2.995970         1.785846        -1.292932
 C         2.463829         0.313298        -0.999771
 H        -0.662519        -0.142155         0.584214
 H        -0.185513         1.524360         0.118894
 H        -0.312827         0.179446        -1.170357
 H         4.127580        -0.856731        -0.065851
 H         2.481525         0.027068         2.177959
 H         2.499007         2.473779         1.905678
 H         4.031177         2.131295         1.351036
 H         2.453234         2.228861        -2.205370
 H         4.124218         1.841867        -1.474565
 H         2.250081        -0.259943        -1.976896
