19
Iteration:  4652
 C         0.064444         0.449521        -0.129159
 C         1.405146         0.089834         0.140801
 O         1.792661        -1.264463         0.197340
 C         3.135592        -0.496188         0.070412
 C         2.559860         0.556138         1.109215
 C         3.036154         1.917594         1.156056
 O         2.677748         2.526568        -0.139730
 C         2.953012         1.798163        -1.294745
 C         2.543073         0.364849        -1.057532
 H        -0.592932         0.441095         0.754315
 H        -0.076726         1.555647        -0.245842
 H        -0.288443        -0.157425        -0.952335
 H         4.010062        -1.201255         0.196312
 H         2.542945         0.032625         2.080391
 H         2.695236         2.534021         1.900097
 H         4.237414         1.927492         1.093124
 H         2.330260         2.287985        -2.112233
 H         3.979845         1.954861        -1.671681
 H         2.507131        -0.179494        -1.989891
