19
Iteration:  3307
 C        -0.058924         0.384156        -0.011194
 C         1.416426         0.108130         0.104076
 O         1.820355        -1.325741         0.236113
 C         3.088911        -0.502939         0.036672
 C         2.555271         0.490959         1.052237
 C         2.950170         1.921928         1.141056
 O         2.830621         2.658851        -0.146491
 C         3.085389         1.809994        -1.303842
 C         2.492649         0.396175        -1.095905
 H        -0.730191         0.115451         0.822873
 H        -0.237483         1.459927        -0.197527
 H        -0.473960        -0.203615        -0.861428
 H         4.214213        -0.899909        -0.013057
 H         2.510554         0.008742         2.059289
 H         2.312426         2.461269         1.870801
 H         3.904524         2.035642         1.566496
 H         2.441767         2.239538        -2.099767
 H         4.151459         1.815250        -1.699550
 H         2.379907        -0.111702        -2.046691
