19
Iteration:  4825
 C        -0.013619         0.412183        -0.071457
 C         1.434219         0.200596         0.045392
 O         1.870992        -1.284359         0.216586
 C         3.099322        -0.556778         0.166178
 C         2.471734         0.482591         1.126604
 C         3.038079         1.876123         1.026613
 O         2.739718         2.670445        -0.125372
 C         2.956182         1.798138        -1.322683
 C         2.582128         0.357744        -1.065769
 H        -0.543092         0.195655         0.796693
 H        -0.190144         1.525868        -0.238654
 H        -0.437271        -0.211188        -0.786628
 H         3.975482        -1.270830         0.141827
 H         2.100738         0.098400         2.034504
 H         2.797681         2.591394         1.839954
 H         4.267725         1.728169         1.329021
 H         2.143271         2.171777        -1.825412
 H         4.032709         2.008643        -1.799700
 H         2.510613        -0.307714        -1.898289
