19
Iteration:   216charge 0 multiplicity 1
 C        -0.016926         0.469212         0.040979
 C         1.398877         0.101788         0.045306
 O         1.838756        -1.387947         0.109964
 C         3.118064        -0.476237         0.028746
 C         2.547955         0.451320         1.069317
 C         2.938919         1.872099         1.146335
 O         2.817480         2.617261        -0.080703
 C         3.114282         1.840235        -1.238650
 C         2.429917         0.444730        -1.146988
 H        -0.499247         0.341359         1.050304
 H        -0.285393         1.531112        -0.365028
 H        -0.570514        -0.145391        -0.587877
 H         3.995847        -0.978026         0.112338
 H         2.298102         0.066578         2.028236
 H         2.329496         2.441989         1.767644
 H         3.957334         2.045282         1.497521
 H         2.748714         2.413289        -2.002427
 H         4.193677         1.725964        -1.328632
 H         2.207462        -0.002950        -2.074006
