19
Iteration:  1686
 C        -0.028655         0.417992        -0.072348
 C         1.405364         0.201818         0.010395
 O         1.853049        -1.316040         0.018085
 C         3.060387        -0.500080         0.159196
 C         2.479185         0.518132         1.065176
 C         3.183901         1.886176         1.107007
 O         2.705865         2.571088        -0.041995
 C         2.928192         1.822297        -1.219365
 C         2.572777         0.365666        -1.034917
 H        -0.318530        -0.320807         0.567847
 H        -0.394023         1.498427         0.231565
 H        -0.260892         0.049375        -0.995439
 H         3.936814        -1.221827         0.403976
 H         2.143698         0.232755         2.041025
 H         2.898503         2.539823         1.985456
 H         4.328405         2.053463         1.289710
 H         2.271272         2.390847        -1.871867
 H         4.018013         1.793845        -1.504285
 H         2.462176        -0.090682        -2.041217
