19
Iteration:  4089
 C        -0.020172         0.439850        -0.023063
 C         1.443010         0.137213         0.022501
 O         1.859941        -1.335809         0.141960
 C         3.065867        -0.463489         0.163890
 C         2.424914         0.544085         1.069469
 C         3.100584         1.891678         1.088327
 O         2.750189         2.645070        -0.108538
 C         2.968462         1.792086        -1.364853
 C         2.547932         0.298593        -1.040380
 H        -0.328245         0.231929         1.001639
 H        -0.217955         1.443220         0.012772
 H        -0.549420        -0.110756        -0.767659
 H         3.980174        -0.961752         0.503364
 H         2.289716         0.064252         2.083874
 H         2.560875         2.502811         1.920475
 H         4.264006         1.938375         1.251739
 H         2.386013         2.309660        -2.143467
 H         4.142319         1.861369        -1.546667
 H         2.585697        -0.356664        -1.936640
