19
Iteration:  4099
 C         0.026504         0.420932        -0.003893
 C         1.425999         0.092597        -0.016580
 O         1.876484        -1.319604         0.182822
 C         3.085762        -0.512227         0.206259
 C         2.423317         0.527476         1.091817
 C         3.068416         1.876146         1.080461
 O         2.796571         2.663075        -0.178966
 C         2.948506         1.833652        -1.286354
 C         2.518623         0.391442        -1.042464
 H        -0.559823         0.084225         0.891436
 H         0.016665         1.448431        -0.223340
 H        -0.453716        -0.131862        -0.865989
 H         4.011301        -1.050375         0.299008
 H         2.055298         0.116144         2.108142
 H         2.651995         2.555516         1.911163
 H         4.186016         1.604208         1.222632
 H         2.377798         2.220243        -2.130756
 H         3.934009         1.738226        -1.687719
 H         2.293605        -0.086197        -2.026595
