19
Iteration:   554charge 0 multiplicity 1
 C        -0.101974         0.436951         0.006215
 C         1.388797         0.140343         0.060671
 O         1.876594        -1.286721         0.121011
 C         3.187603        -0.553614        -0.089977
 C         2.565979         0.472865         1.103699
 C         2.959963         1.870392         1.207271
 O         2.735405         2.626816        -0.144809
 C         3.138185         1.786831        -1.206526
 C         2.462216         0.411791        -1.060522
 H        -0.624766         0.345649         0.946507
 H        -0.274095         1.631377        -0.296365
 H        -0.786833        -0.025070        -0.628670
 H         4.077522        -1.212612        -0.312108
 H         2.634404         0.047377         2.186805
 H         2.124788         2.334497         1.811942
 H         3.930496         2.155714         1.614311
 H         2.857948         2.385620        -2.204309
 H         4.265151         1.685343        -1.063487
 H         2.042721        -0.027660        -2.017392
