19
Iteration:   428
 C         0.002311         0.425513        -0.008905
 C         1.445590         0.117077         0.019960
 O         1.794364        -1.300357         0.084103
 C         3.129525        -0.546282         0.052434
 C         2.521953         0.456795         1.109752
 C         3.076753         1.882970         1.154790
 O         2.761246         2.689517        -0.080695
 C         2.998024         1.846693        -1.208040
 C         2.443910         0.408339        -1.125867
 H        -0.475071         0.089701         0.939456
 H        -0.254463         1.407788        -0.108884
 H        -0.530753        -0.176590        -0.860849
 H         4.151996        -0.989187         0.138312
 H         2.347067        -0.079079         2.028980
 H         2.496175         2.391481         1.962397
 H         4.134329         1.752105         1.376612
 H         2.657493         2.366566        -2.096700
 H         4.118015         1.649173        -1.395014
 H         2.291519        -0.174955        -2.060679
