19
Iteration:  1884charge 0 multiplicity 1
 C        -0.015301         0.481640        -0.051023
 C         1.462149         0.139230        -0.044263
 O         1.922274        -1.340735         0.070308
 C         3.092394        -0.518391         0.210771
 C         2.397792         0.467399         1.145417
 C         3.022522         1.830581         1.132036
 O         2.810460         2.614875        -0.093082
 C         2.901291         1.846652        -1.315281
 C         2.558480         0.428155        -1.053421
 H        -0.390302        -0.022667         0.800082
 H        -0.112954         1.634363         0.248912
 H        -0.488206         0.177819        -0.983363
 H         4.088001        -1.090886         0.380308
 H         2.231512         0.004725         2.112788
 H         2.561278         2.443510         1.901701
 H         4.113801         1.776357         1.271690
 H         2.238055         2.319447        -2.021621
 H         3.906015         1.985013        -1.814870
 H         2.345729        -0.167800        -1.915218
