19
Iteration:  3670charge 0 multiplicity 1
 C        -0.109230         0.461336         0.112953
 C         1.341130         0.097498         0.038272
 O         1.844317        -1.349720         0.125625
 C         3.097495        -0.494482         0.087052
 C         2.490400         0.528481         1.038731
 C         3.048524         1.954086         1.152048
 O         2.696096         2.610886        -0.207823
 C         3.101540         1.815513        -1.274480
 C         2.667148         0.315460        -1.059874
 H        -0.405306        -0.006777         1.042463
 H        -0.281809         1.563892         0.189617
 H        -0.530257         0.019298        -0.769891
 H         4.036882        -0.932100         0.019807
 H         2.242218         0.359423         2.139322
 H         2.389792         2.549527         1.710751
 H         4.095258         1.899631         1.293759
 H         2.616122         2.204905        -2.132555
 H         4.149207         1.840545        -1.446160
 H         2.639708        -0.263793        -1.963123
