19
Iteration:    96charge 0 multiplicity 1
 C         0.045125         0.447044         0.014869
 C         1.470612         0.236019         0.027414
 O         1.807093        -1.276059         0.077782
 C         3.122314        -0.475212         0.115631
 C         2.477660         0.478949         1.124105
 C         3.024773         1.815534         1.142877
 O         2.746006         2.510303        -0.039604
 C         2.996801         1.835730        -1.344730
 C         2.521218         0.393045        -1.121647
 H        -0.472183        -0.213655         0.806432
 H        -0.398985         1.577791        -0.005363
 H        -0.303866         0.064310        -0.905722
 H         3.984114        -1.001318         0.134472
 H         2.201491         0.073905         2.055178
 H         2.648563         2.444927         1.925723
 H         4.144023         1.836769         1.328231
 H         2.317918         2.379317        -1.918459
 H         4.075163         2.045058        -1.679577
 H         2.298044        -0.179375        -1.944925
