19
Iteration:  4570charge 0 multiplicity 1
 C        -0.095097         0.363757         0.077101
 C         1.444633         0.180576         0.055612
 O         1.885869        -1.283269         0.146923
 C         3.026395        -0.534145         0.058771
 C         2.569671         0.517544         1.090960
 C         2.920899         2.008092         1.125224
 O         2.844775         2.589596        -0.153437
 C         3.088739         1.758904        -1.281030
 C         2.484003         0.338938        -1.105938
 H        -0.442187        -0.404215         0.810612
 H        -0.304252         1.500794        -0.036267
 H        -0.471534         0.002809        -0.972244
 H         4.034700        -0.918106         0.105808
 H         2.351349         0.088572         2.079206
 H         2.183740         2.548393         1.873555
 H         3.984657         2.395692         1.537343
 H         2.657850         2.268462        -2.143551
 H         4.145602         1.709371        -1.403824
 H         2.148861        -0.147096        -2.086200
