19
Iteration:  1587charge 0 multiplicity 1
 C        -0.178311         0.484387         0.103661
 C         1.422559         0.076057         0.013994
 O         1.910173        -1.318809         0.042390
 C         3.097822        -0.543143         0.056313
 C         2.512302         0.381861         1.086479
 C         2.900651         1.871010         1.148409
 O         2.812976         2.646480        -0.112320
 C         3.114897         1.888634        -1.291022
 C         2.575564         0.436622        -1.062068
 H        -0.401674         0.270248         1.079917
 H        -0.339367         1.635282        -0.183257
 H        -0.782402        -0.123195        -0.476690
 H         4.026132        -1.223365        -0.060026
 H         2.526620        -0.049593         2.052945
 H         2.022514         2.461997         1.653559
 H         3.848216         2.078067         1.658881
 H         2.661768         2.485472        -2.087336
 H         4.261517         1.831048        -1.322906
 H         2.510099        -0.204453        -1.961888
