19
Iteration:  3402charge 0 multiplicity 1
 C         0.059903         0.408833        -0.037082
 C         1.469752         0.131010         0.085804
 O         1.797506        -1.260556         0.154397
 C         3.142339        -0.553840         0.073245
 C         2.553417         0.541404         1.083890
 C         2.977677         2.001185         1.078424
 O         2.725368         2.623010        -0.123677
 C         2.982761         1.760574        -1.227634
 C         2.449249         0.310440        -1.095946
 H        -0.594088        -0.066734         0.765553
 H        -0.055879         1.427199         0.000275
 H        -0.188869        -0.149355        -1.019646
 H         3.941392        -1.137419         0.242907
 H         2.353765         0.316262         2.127317
 H         2.796095         2.526282         2.052825
 H         4.090007         1.751859         1.260010
 H         2.536326         2.423352        -2.050064
 H         4.102688         1.722373        -1.394817
 H         2.271535        -0.254195        -2.096016
