19
Iteration:  1417
 C        -0.191874         0.420501         0.012990
 C         1.383440         0.189331         0.066331
 O         1.888805        -1.361648         0.135246
 C         3.116395        -0.466864        -0.050479
 C         2.586895         0.462697         1.016358
 C         2.944587         1.910233         1.181900
 O         2.762812         2.604733        -0.065029
 C         3.158285         1.843720        -1.214201
 C         2.526874         0.342905        -1.103461
 H        -0.550026         0.266410         1.100903
 H        -0.419204         1.429647        -0.227582
 H        -0.830847        -0.144260        -0.735966
 H         4.020625        -1.059718        -0.110693
 H         2.530334        -0.011558         2.052021
 H         2.193878         2.357988         1.754253
 H         3.919959         2.109039         1.585942
 H         3.156409         2.486338        -2.122786
 H         4.326926         1.784547        -1.328205
 H         2.178019         0.009598        -2.095628
