19
Iteration:  3163charge 0 multiplicity 1
 C        -0.068724         0.431663         0.008654
 C         1.332366         0.073720        -0.006459
 O         1.892392        -1.286646         0.078610
 C         3.090362        -0.526844         0.141288
 C         2.533985         0.505522         1.042571
 C         3.034784         2.031653         1.132054
 O         2.808932         2.635992        -0.103605
 C         2.981068         1.766141        -1.236056
 C         2.557567         0.293678        -1.098108
 H        -0.213255         0.311554         1.089863
 H        -0.167990         1.373368        -0.235666
 H        -0.797562        -0.260775        -0.423564
 H         4.063518        -1.131522         0.339987
 H         2.352119         0.114285         2.066707
 H         2.455072         2.653246         1.787715
 H         3.986311         2.287926         1.554221
 H         2.287089         2.224588        -1.963099
 H         3.979566         1.792784        -1.681724
 H         2.545206        -0.310889        -2.038646
