19
Iteration:  4068
 C        -0.136395         0.454228         0.043204
 C         1.449024         0.135947        -0.032306
 O         1.855216        -1.232522         0.131621
 C         3.145641        -0.504622         0.107686
 C         2.548126         0.538431         1.130170
 C         3.039925         1.955667         1.124573
 O         2.679866         2.531508        -0.196065
 C         3.031546         1.729444        -1.214174
 C         2.592362         0.333418        -1.039243
 H        -0.655310         0.264750         0.937966
 H        -0.222460         1.480510        -0.063119
 H        -0.507525        -0.026708        -0.783310
 H         4.043840        -1.184978         0.042675
 H         2.228911         0.055713         2.049601
 H         2.536748         2.689569         1.810631
 H         4.122490         1.921235         1.192315
 H         2.435716         2.101469        -2.086318
 H         4.246744         1.763825        -1.544739
 H         2.411412        -0.009583        -2.053912
