19
Iteration:  2232charge 0 multiplicity 1
 C        -0.049224         0.381072        -0.082268
 C         1.429079         0.111394         0.032886
 O         1.837636        -1.282656         0.107296
 C         3.109734        -0.444184         0.089460
 C         2.508413         0.527614         1.093962
 C         3.049191         1.916622         1.180670
 O         2.768822         2.578681        -0.060118
 C         3.033403         1.809127        -1.227102
 C         2.436964         0.403172        -1.138202
 H        -0.590912        -0.140371         0.683172
 H        -0.392068         1.425894         0.000941
 H        -0.275892        -0.156176        -0.969513
 H         3.974204        -0.992419         0.165077
 H         2.475509         0.005191         2.047067
 H         2.729594         2.599742         2.077218
 H         4.183819         1.815340         1.305560
 H         2.770069         2.410519        -2.159328
 H         4.151105         1.704876        -1.365303
 H         2.301373        -0.312218        -2.023154
