19
Iteration:  4674charge 0 multiplicity 1
 C        -0.049582         0.529064        -0.137918
 C         1.427907         0.246703         0.029292
 O         1.943805        -1.347472         0.206777
 C         3.130673        -0.525686         0.088303
 C         2.575549         0.449806         1.135182
 C         3.065517         1.915857         1.103864
 O         2.672099         2.647101        -0.135815
 C         2.967187         1.723539        -1.200057
 C         2.446624         0.292582        -1.067035
 H        -0.557642         0.504794         0.841001
 H        -0.336030         1.657661        -0.420672
 H        -0.429151        -0.162883        -0.910915
 H         4.092072        -1.100011         0.102733
 H         2.424345        -0.071125         2.109618
 H         2.478870         2.363625         1.834023
 H         4.248708         2.295086         1.230054
 H         2.485693         2.229410        -2.096616
 H         4.020102         1.797822        -1.421818
 H         2.198004        -0.341900        -1.909712
