19
Iteration:  4907
 C        -0.027997         0.414699         0.075458
 C         1.451070         0.101061         0.018680
 O         1.773569        -1.253072         0.141595
 C         3.162872        -0.535509         0.051612
 C         2.522823         0.519520         1.072128
 C         2.939300         2.013351         1.119038
 O         2.709433         2.647318        -0.185074
 C         3.076519         1.721569        -1.250503
 C         2.616542         0.305362        -1.046527
 H        -0.394001         0.219968         1.137385
 H        -0.148257         1.499201        -0.081501
 H        -0.751339        -0.001201        -0.711534
 H         3.985901        -1.219543        -0.012037
 H         2.428260         0.073699         2.133183
 H         2.206846         2.543042         1.689297
 H         4.050265         2.002584         1.585145
 H         2.761829         2.179899        -2.250079
 H         4.202933         1.732340        -1.412984
 H         2.279964        -0.265382        -1.954292
