19
Iteration:  1974charge 0 multiplicity 1
 C        -0.122953         0.435743         0.029411
 C         1.387332         0.129308        -0.019098
 O         1.882713        -1.354750        -0.001886
 C         3.122606        -0.498266         0.136953
 C         2.473608         0.477717         1.123945
 C         3.047067         1.931494         1.082286
 O         2.743010         2.626606        -0.086328
 C         3.073111         1.840333        -1.212780
 C         2.566350         0.362302        -1.055556
 H        -0.641910         0.308815         0.969512
 H        -0.374107         1.447843        -0.072922
 H        -0.603929        -0.262986        -0.669143
 H         4.025068        -1.047094         0.156334
 H         2.239882         0.125244         2.151804
 H         2.525484         2.510329         1.952143
 H         4.124220         1.963020         1.328266
 H         2.695594         2.328625        -2.130212
 H         4.148251         1.822505        -1.417478
 H         2.530206        -0.140258        -1.975117
