19
Iteration:   802
 C        -0.056414         0.422211        -0.047585
 C         1.371618         0.109947        -0.000264
 O         1.896258        -1.338595         0.040507
 C         3.100612        -0.493607         0.142906
 C         2.522336         0.505666         1.111451
 C         3.034400         1.883029         1.142246
 O         2.862652         2.612077        -0.086202
 C         2.898910         1.840677        -1.219588
 C         2.515896         0.388902        -1.021925
 H        -0.727589         0.002088         0.676227
 H        -0.222903         1.619123        -0.050750
 H        -0.413320         0.108075        -1.079665
 H         4.145344        -1.030900         0.015921
 H         2.262915         0.009715         2.093839
 H         2.671548         2.460528         2.028845
 H         4.163966         1.968078         1.288603
 H         2.277527         2.342293        -1.889657
 H         3.904902         1.930640        -1.700974
 H         2.395976        -0.119557        -2.027230
