19
Iteration:  4095
 C         0.022152         0.420766        -0.008055
 C         1.449749         0.103704        -0.006855
 O         1.873594        -1.327769         0.169364
 C         3.058670        -0.486154         0.195343
 C         2.422759         0.542977         1.075724
 C         3.094958         1.875439         1.101885
 O         2.776579         2.665020        -0.157691
 C         2.951584         1.826281        -1.327266
 C         2.524567         0.354716        -1.025387
 H        -0.538193         0.130716         0.958527
 H        -0.020008         1.594090        -0.098162
 H        -0.481127        -0.223045        -0.864806
 H         3.975891        -1.047105         0.426757
 H         2.119027         0.060618         2.041353
 H         2.571213         2.454587         1.802687
 H         4.141251         1.637561         1.193408
 H         2.384821         2.260946        -2.164510
 H         4.013778         1.754527        -1.620087
 H         2.384265        -0.117490        -2.016973
