19
Iteration:  2772charge 0 multiplicity 1
 C        -0.088363         0.477845        -0.128003
 C         1.456163         0.102186         0.069537
 O         1.874162        -1.314832         0.143441
 C         3.164632        -0.489720         0.036982
 C         2.597755         0.452230         1.135423
 C         3.064411         1.935289         1.120342
 O         2.707691         2.641726        -0.089401
 C         2.952608         1.792544        -1.230294
 C         2.461502         0.331605        -1.039482
 H        -0.529789         0.345018         0.857740
 H        -0.175737         1.470182        -0.284006
 H        -0.519757        -0.111795        -0.913901
 H         4.141426        -0.956365         0.053554
 H         2.566909         0.048519         2.170255
 H         2.293921         2.453423         1.815341
 H         4.107074         2.080954         1.435072
 H         2.556742         2.269703        -2.202474
 H         3.985201         1.655334        -1.518806
 H         2.205231        -0.159170        -1.939891
