19
Iteration:  1119
 C        -0.062170         0.400514        -0.004739
 C         1.425684         0.189861         0.000834
 O         1.824662        -1.271828         0.083182
 C         3.079601        -0.532890         0.075114
 C         2.556468         0.464768         1.085882
 C         3.003009         1.869501         1.172801
 O         2.739506         2.581226        -0.049323
 C         3.033279         1.831484        -1.241650
 C         2.583765         0.398693        -1.120965
 H        -0.550216         0.018480         0.795037
 H        -0.223434         1.491285         0.105030
 H        -0.502103         0.084050        -0.878486
 H         4.037002        -1.079451         0.109690
 H         2.275320         0.012199         2.045858
 H         2.490126         2.446820         1.893493
 H         4.070962         1.879709         1.317104
 H         2.556909         2.321767        -2.123765
 H         4.210855         2.011780        -1.445714
 H         2.416316        -0.050882        -2.058073
