19
Iteration:  4728charge 0 multiplicity 1
 C        -0.060513         0.409848         0.149085
 C         1.427499         0.246894        -0.031494
 O         1.837751        -1.302915         0.075869
 C         3.139806        -0.538703         0.125825
 C         2.461792         0.539846         1.076314
 C         2.900098         1.967711         1.074224
 O         2.793465         2.592999        -0.142142
 C         3.115754         1.703516        -1.304498
 C         2.618529         0.358752        -1.041068
 H        -0.576760        -0.048627         1.003713
 H        -0.560060         1.494026         0.292654
 H        -0.575650        -0.124484        -0.684087
 H         4.133964        -1.082290         0.080694
 H         2.295177         0.157130         2.094750
 H         2.287775         2.453856         1.725303
 H         3.875137         2.149798         1.473479
 H         2.549318         2.149293        -2.157142
 H         4.119246         1.769428        -1.551196
 H         2.367988        -0.261456        -1.895076
