19
Iteration:  1917
 C        -0.119513         0.473244        -0.032966
 C         1.390108         0.104284         0.001018
 O         1.906935        -1.301900         0.087221
 C         3.106060        -0.499130         0.002155
 C         2.574196         0.485746         1.155049
 C         2.952582         1.964486         1.177125
 O         2.731810         2.623345        -0.093988
 C         3.071787         1.768323        -1.220643
 C         2.547633         0.338030        -1.074160
 H        -0.463998         0.082176         0.872248
 H        -0.198368         1.630860        -0.211370
 H        -0.885294         0.256836        -0.760405
 H         4.080517        -1.182465        -0.028115
 H         2.699368        -0.162396         1.990120
 H         2.336819         2.393501         1.960695
 H         4.067457         2.114632         1.417429
 H         2.560985         2.123223        -2.060678
 H         4.170608         1.700346        -1.260051
 H         2.383126        -0.167685        -1.995040
