19
Iteration:   863
 C        -0.055934         0.355216        -0.022658
 C         1.445323         0.146088         0.059487
 O         1.787358        -1.306015         0.070998
 C         3.084146        -0.551148         0.020936
 C         2.578533         0.438397         1.113049
 C         3.038826         1.989835         1.203798
 O         2.760148         2.697610        -0.101516
 C         3.096632         1.822826        -1.214479
 C         2.466144         0.386596        -1.083220
 H        -0.623808        -0.155314         0.801156
 H        -0.283912         1.325127        -0.022973
 H        -0.398459        -0.140337        -0.969801
 H         3.913401        -1.135416        -0.161784
 H         2.419956         0.041988         2.100328
 H         2.476267         2.522197         1.955755
 H         4.111314         1.927872         1.378919
 H         2.586449         2.382464        -2.120991
 H         4.154758         1.655483        -1.483208
 H         2.284703        -0.186440        -2.001767
