19
Iteration:  2346charge 0 multiplicity 1
 C         0.071047         0.466257        -0.099274
 C         1.476933         0.191357         0.087893
 O         1.841482        -1.357146         0.109308
 C         3.114407        -0.532425         0.042813
 C         2.504641         0.484670         1.087825
 C         3.000913         1.964098         1.104234
 O         2.717339         2.617492        -0.043200
 C         2.951126         1.787279        -1.189933
 C         2.494417         0.332038        -1.094760
 H        -0.573737        -0.060747         0.624052
 H        -0.075557         1.558782        -0.051173
 H        -0.288663         0.027482        -1.054643
 H         4.175356        -1.053213         0.091587
 H         2.285156        -0.059381         2.033982
 H         2.539085         2.474796         1.910331
 H         4.085223         2.063529         1.523827
 H         2.613585         2.380866        -1.961524
 H         4.089681         1.761185        -1.512169
 H         2.089797        -0.029049        -2.016627
