19
Iteration:  2650
 C        -0.117425         0.430166         0.071402
 C         1.370219         0.114196         0.019164
 O         1.906330        -1.330340         0.121777
 C         3.080766        -0.553791         0.054429
 C         2.494928         0.436552         1.047029
 C         2.973341         1.957779         1.148626
 O         2.749090         2.668238        -0.151662
 C         3.124800         1.818969        -1.229429
 C         2.543666         0.426270        -1.097545
 H        -0.429857        -0.137758         0.945822
 H        -0.357608         1.465391         0.112412
 H        -0.610842        -0.089719        -0.758128
 H         3.998182        -1.112376         0.045453
 H         2.513204         0.033522         2.081279
 H         2.363717         2.361642         2.043104
 H         4.026260         2.100289         1.482366
 H         2.909895         2.198678        -2.323043
 H         4.246617         1.802544        -1.290574
 H         2.453257        -0.036664        -2.119570
