19
Iteration:  1089charge 0 multiplicity 1
 C        -0.030543         0.463601        -0.006400
 C         1.413039         0.138051         0.091395
 O         1.849612        -1.364921         0.051647
 C         3.084637        -0.501669        -0.060060
 C         2.616308         0.466385         1.084759
 C         2.860303         1.982439         1.203403
 O         2.818689         2.592909        -0.072016
 C         3.090592         1.762734        -1.182706
 C         2.459523         0.404871        -1.105120
 H        -0.652732         0.273816         0.971432
 H        -0.080391         1.500866        -0.135286
 H        -0.497587        -0.048279        -0.892486
 H         4.176106        -0.863637        -0.137785
 H         2.575410         0.033314         2.050584
 H         2.126137         2.436534         1.891624
 H         3.937193         2.076621         1.533525
 H         2.815738         2.157759        -2.125061
 H         4.098951         1.714715        -1.193192
 H         2.128768         0.020466        -2.033449
