19
Iteration:   623charge 0 multiplicity 1
 C        -0.110167         0.462302        -0.025724
 C         1.424981         0.130110         0.026840
 O         1.798011        -1.328602         0.057916
 C         3.139856        -0.485436         0.109212
 C         2.505753         0.505770         1.112956
 C         3.100056         1.862077         1.127573
 O         2.779714         2.613522        -0.041515
 C         2.924957         1.867979        -1.321961
 C         2.681941         0.366684        -1.056373
 H        -0.511747        -0.260906         0.788476
 H        -0.352044         1.520636         0.038797
 H        -0.646850        -0.087648        -0.999254
 H         4.058173        -0.964080         0.321120
 H         2.122567         0.138695         2.037076
 H         2.606576         2.414446         1.916335
 H         4.152140         1.766029         1.431745
 H         2.107505         2.165863        -1.977252
 H         4.043061         2.051074        -1.669398
 H         2.418306        -0.263115        -1.912862
