19
Iteration:  2008charge 0 multiplicity 1
 C         0.012058         0.432251        -0.065193
 C         1.430109         0.055056        -0.055366
 O         1.859110        -1.260302         0.149509
 C         3.183830        -0.462920         0.074183
 C         2.407064         0.421714         1.170107
 C         3.009997         1.899955         1.150836
 O         2.885851         2.598431        -0.045226
 C         2.897604         1.847818        -1.306380
 C         2.483428         0.387254        -1.068260
 H        -0.397061        -0.100615         0.798610
 H        -0.019634         1.425934        -0.145499
 H        -0.382238         0.146211        -1.051273
 H         4.013951        -1.029892         0.022723
 H         2.016123         0.045866         2.144361
 H         2.413216         2.740841         1.727970
 H         4.068581         1.809168         1.490189
 H         2.180272         2.452705        -1.920452
 H         3.909789         1.857201        -1.650162
 H         2.439086        -0.181496        -1.971609
