19
Iteration:  2671charge 0 multiplicity 1
 C        -0.050034         0.303247         0.046547
 C         1.420603         0.161233         0.041021
 O         1.819680        -1.263988         0.078107
 C         3.143583        -0.433719        -0.006763
 C         2.514274         0.553955         1.063631
 C         2.997700         2.017088         1.145536
 O         2.778148         2.572573        -0.088675
 C         3.090394         1.739668        -1.150986
 C         2.436364         0.334634        -1.127279
 H        -0.475554        -0.347640         0.796761
 H        -0.098090         1.395122         0.075337
 H        -0.459671        -0.012257        -0.930342
 H         4.184600        -1.029115        -0.046678
 H         2.314928         0.105718         2.058397
 H         2.452445         2.637780         1.963665
 H         4.008563         2.177884         1.522847
 H         2.897638         2.160924        -2.263957
 H         4.216850         1.508109        -1.155484
 H         2.001168        -0.093424        -2.084593
