19
Iteration:  1123
 C        -0.089212         0.405082        -0.018276
 C         1.437490         0.217895        -0.000685
 O         1.814494        -1.319851         0.067170
 C         3.087221        -0.509682         0.080529
 C         2.534404         0.490809         1.094009
 C         3.025790         1.865862         1.149485
 O         2.723651         2.582345        -0.045206
 C         3.042055         1.833235        -1.238266
 C         2.620841         0.384135        -1.110609
 H        -0.590473        -0.065173         0.952915
 H        -0.169174         1.450932         0.110328
 H        -0.705958         0.144028        -0.954353
 H         4.046696        -1.126795         0.191750
 H         2.402907        -0.011146         2.045246
 H         2.623188         2.579872         1.910044
 H         4.147801         1.866825         1.393136
 H         2.458582         2.387232        -1.967559
 H         4.043305         1.913613        -1.472570
 H         2.473771        -0.038461        -2.127787
