19
Iteration:  2699
 C        -0.156273         0.329840        -0.000260
 C         1.364055         0.203228         0.054211
 O         1.884999        -1.358823         0.138261
 C         3.102617        -0.458714         0.058294
 C         2.497103         0.440670         1.133013
 C         2.982599         1.946774         1.081190
 O         2.824550         2.614134        -0.108952
 C         3.091299         1.862152        -1.281698
 C         2.546373         0.377009        -1.058019
 H        -0.595323        -0.229300         0.845921
 H        -0.302655         1.489443         0.178345
 H        -0.499476         0.001883        -0.982531
 H         4.094020        -0.911684        -0.143735
 H         2.389493         0.154513         2.187053
 H         2.518260         2.460683         1.893489
 H         4.104944         2.009896         1.314265
 H         2.676167         2.201660        -2.165622
 H         4.151202         2.043668        -1.570895
 H         2.223679        -0.168147        -1.955694
