19
Iteration:  2343charge 0 multiplicity 1
 C         0.064758         0.471697        -0.074316
 C         1.479489         0.166811         0.047249
 O         1.849473        -1.362060         0.099964
 C         3.119237        -0.534873         0.049928
 C         2.503550         0.473026         1.125901
 C         2.983907         1.978303         1.104631
 O         2.743410         2.597862        -0.060520
 C         2.965363         1.779496        -1.153526
 C         2.477057         0.360127        -1.109145
 H        -0.452884        -0.081099         0.619782
 H        -0.055368         1.622910        -0.136451
 H        -0.358852         0.115360        -0.998931
 H         4.061750        -0.976155         0.102112
 H         2.332259        -0.081541         2.031699
 H         2.490260         2.682831         1.938353
 H         3.995694         2.065582         1.418149
 H         2.451126         2.386510        -2.027677
 H         4.051058         1.809779        -1.457925
 H         2.123982        -0.105974        -2.096962
