19
Iteration:   703charge 0 multiplicity 1
 C         0.053789         0.393398         0.117553
 C         1.449570         0.166225        -0.084261
 O         1.782458        -1.282055         0.021300
 C         3.112206        -0.536396         0.070322
 C         2.480627         0.471295         1.077202
 C         2.955880         1.893122         1.142558
 O         2.689139         2.658693        -0.071803
 C         3.132918         1.793205        -1.226902
 C         2.547197         0.388795        -1.063077
 H        -0.417243         0.063516         1.034839
 H        -0.299226         1.464960         0.053264
 H        -0.543759        -0.107955        -0.719143
 H         4.095633        -1.131351         0.169885
 H         2.246604        -0.054605         2.026109
 H         2.578953         2.666525         1.843292
 H         4.031800         1.807794         1.281354
 H         2.636670         2.328302        -1.979382
 H         4.238134         1.939191        -1.479344
 H         2.342420        -0.284853        -1.919459
