19
Iteration:  2164charge 0 multiplicity 1
 C        -0.030831         0.577478        -0.105948
 C         1.386008         0.101130         0.016193
 O         1.901840        -1.288959         0.072070
 C         3.206874        -0.501188         0.029643
 C         2.510293         0.476700         1.100086
 C         2.974254         1.949149         1.204562
 O         2.738102         2.617365        -0.027472
 C         2.937147         1.701456        -1.226278
 C         2.546218         0.287983        -1.062710
 H        -0.594255         0.283033         0.803284
 H        -0.091825         1.590062        -0.036117
 H        -0.388769         0.044347        -0.960170
 H         4.044563        -1.063723         0.240140
 H         2.509581        -0.113069         2.047932
 H         2.502354         2.710812         2.005030
 H         4.118628         1.848258         1.359982
 H         2.237271         2.170628        -2.040312
 H         3.966728         1.849385        -1.602995
 H         2.343215        -0.137452        -2.087289
