19
Iteration:  1688charge 0 multiplicity 1
 C        -0.041543         0.437658        -0.078027
 C         1.419436         0.191819         0.016255
 O         1.848481        -1.316795         0.028155
 C         3.062818        -0.501808         0.147139
 C         2.494624         0.524344         1.072007
 C         3.169489         1.884465         1.096754
 O         2.704258         2.569173        -0.033111
 C         2.930850         1.819665        -1.211542
 C         2.582813         0.357223        -1.049608
 H        -0.412295        -0.302692         0.622599
 H        -0.417168         1.417735         0.239374
 H        -0.286570         0.042927        -1.050001
 H         3.925428        -1.137890         0.319436
 H         2.184071         0.270821         2.101391
 H         2.870157         2.531139         2.041216
 H         4.290002         2.015406         1.297224
 H         2.253830         2.418209        -1.912653
 H         4.063519         1.819323        -1.558668
 H         2.505881        -0.123658        -2.029892
