19
Iteration:   692
 C        -0.029807         0.430928         0.023413
 C         1.451349         0.189612         0.027821
 O         1.801367        -1.300192         0.037865
 C         3.124794        -0.503973         0.088375
 C         2.521232         0.482816         1.058594
 C         3.014251         1.953494         1.137796
 O         2.717212         2.568960        -0.038212
 C         3.068812         1.798990        -1.239101
 C         2.509090         0.376709        -1.114758
 H        -0.311029        -0.141982         0.906597
 H        -0.245828         1.510454         0.060348
 H        -0.433857        -0.071501        -0.894066
 H         4.072496        -1.122642         0.121754
 H         2.330607         0.054870         2.059886
 H         2.357536         2.257961         1.961037
 H         4.044085         2.117379         1.445883
 H         2.586200         2.332175        -2.007155
 H         4.188175         1.685642        -1.428033
 H         2.439366        -0.112447        -2.100208
