19
Iteration:  4253
 C         0.021809         0.524655        -0.070164
 C         1.487239         0.092545         0.107671
 O         1.858223        -1.287328         0.149930
 C         3.171872        -0.602908         0.041605
 C         2.498154         0.535993         1.111613
 C         3.008098         1.962651         1.107980
 O         2.700242         2.634818        -0.153731
 C         2.950354         1.777744        -1.215563
 C         2.476512         0.255305        -1.043935
 H        -0.705173         0.285974         0.762889
 H        -0.147655         1.667126        -0.061535
 H        -0.229489         0.020471        -1.061758
 H         4.121750        -1.175454        -0.070429
 H         2.457086         0.061593         2.149582
 H         2.417124         2.636412         1.801182
 H         4.065627         2.060850         1.296872
 H         2.548475         2.379439        -2.069296
 H         4.164624         1.690969        -1.224672
 H         2.246602        -0.191278        -2.021993
