19
Iteration:  4898charge 0 multiplicity 1
 C        -0.018448         0.448610         0.056914
 C         1.412373         0.158978        -0.000011
 O         1.803793        -1.285743         0.186347
 C         3.095470        -0.579240         0.097479
 C         2.610670         0.515545         1.086818
 C         2.938796         1.934806         1.065043
 O         2.702439         2.607971        -0.179459
 C         3.123975         1.793224        -1.251689
 C         2.570751         0.326224        -1.070053
 H        -0.418965         0.231207         1.071648
 H        -0.146560         1.543512        -0.258781
 H        -0.602503        -0.239316        -0.665850
 H         4.046892        -1.103696        -0.007880
 H         2.350978         0.135641         2.095080
 H         2.110859         2.396701         1.774623
 H         3.924300         2.370656         1.464711
 H         2.562447         2.279805        -2.092894
 H         4.162785         1.828688        -1.367757
 H         2.353308        -0.227679        -2.029847
