19
Iteration:  1255charge 0 multiplicity 1
 C        -0.066686         0.442120         0.126119
 C         1.355251         0.153147        -0.086780
 O         1.838467        -1.322485        -0.084533
 C         3.121257        -0.490006         0.067953
 C         2.435929         0.537711         1.110881
 C         3.058136         1.964890         1.184504
 O         2.732580         2.596695        -0.079708
 C         3.078369         1.755979        -1.191758
 C         2.573959         0.347418        -1.054267
 H        -0.233690         0.208351         1.236874
 H        -0.265977         1.372560        -0.038988
 H        -0.702171        -0.241992        -0.539062
 H         4.252661        -0.832923         0.225076
 H         2.254172        -0.055097         2.021572
 H         2.319891         2.519371         1.823893
 H         4.065938         1.924837         1.553673
 H         2.833952         2.214960        -2.176276
 H         4.217577         1.640793        -1.372624
 H         2.685939        -0.120987        -2.086051
