19
Iteration:  4838
 C        -0.074479         0.502599        -0.076312
 C         1.448630         0.122367         0.009808
 O         1.896337        -1.353257         0.189127
 C         3.132638        -0.556856         0.157859
 C         2.456474         0.506161         1.144177
 C         3.083942         1.922230         1.111024
 O         2.724868         2.633029        -0.134722
 C         2.932925         1.864877        -1.331878
 C         2.546765         0.282690        -1.019995
 H        -0.508451         0.474016         0.932244
 H        -0.177410         1.528026        -0.493499
 H        -0.511412        -0.210304        -0.795844
 H         4.150264        -0.977293         0.256344
 H         2.230631         0.213526         2.199353
 H         2.721222         2.430889         1.939257
 H         4.310171         1.878765         0.991871
 H         2.440363         2.220339        -2.246805
 H         4.028039         2.002327        -1.724616
 H         2.298076        -0.218052        -1.950839
