19
Iteration:  4145
 C        -0.042180         0.333941        -0.100278
 C         1.447790         0.174865         0.058200
 O         1.848418        -1.224636         0.216891
 C         3.120530        -0.478959         0.079822
 C         2.532440         0.525220         1.154947
 C         3.036884         1.966177         1.130497
 O         2.862776         2.554892        -0.117724
 C         2.979223         1.775658        -1.300296
 C         2.378928         0.359277        -1.098833
 H        -0.546868        -0.072292         0.736928
 H        -0.224105         1.403991        -0.211432
 H        -0.405271        -0.200583        -0.938049
 H         4.102112        -1.056559         0.088957
 H         2.239979         0.043563         2.081918
 H         2.379123         2.548026         1.851467
 H         4.169249         1.958060         1.422682
 H         2.471369         2.347091        -2.090526
 H         3.969892         1.620598        -1.673416
 H         2.270782        -0.195312        -2.030030
