19
Iteration:  4705
 C         0.017964         0.436563         0.045321
 C         1.378135         0.047865         0.039885
 O         1.871989        -1.291114         0.137202
 C         3.144938        -0.462786         0.100225
 C         2.411098         0.501905         1.150887
 C         2.988018         1.938246         1.078959
 O         2.742449         2.590456        -0.180232
 C         3.113766         1.810211        -1.255402
 C         2.509422         0.331595        -1.111897
 H        -0.590007         0.453556         1.010559
 H         0.064801         1.663397        -0.072891
 H        -0.708857        -0.043713        -0.591956
 H         4.073131        -1.138435         0.157287
 H         2.149463         0.019955         2.084200
 H         2.443705         2.478021         1.754216
 H         4.025751         2.165344         1.301854
 H         2.672534         2.309786        -2.114418
 H         4.157687         1.854255        -1.479771
 H         2.366394        -0.248341        -2.030056
