19
Iteration:  1144charge 0 multiplicity 1
 C        -0.069226         0.472253        -0.014366
 C         1.385144         0.079763        -0.070799
 O         1.882006        -1.314644        -0.015165
 C         3.091277        -0.494424         0.180208
 C         2.431063         0.467400         1.102263
 C         3.164283         1.887997         1.115523
 O         2.730290         2.648581        -0.039986
 C         2.965556         1.807549        -1.208115
 C         2.576013         0.361225        -1.012096
 H        -0.645732        -0.120330         0.814077
 H        -0.238388         1.444246         0.208811
 H        -0.602734         0.197631        -0.976193
 H         4.154851        -0.983572         0.127512
 H         1.972871         0.134135         2.014999
 H         3.004762         2.608071         1.952356
 H         4.276214         1.805425         1.025718
 H         2.381637         2.227680        -2.031887
 H         4.064558         2.032258        -1.466371
 H         2.549730        -0.120663        -1.989540
