19
Iteration:   279
 C        -0.076868         0.402011         0.001759
 C         1.429780         0.116852         0.007021
 O         1.769188        -1.263630         0.069756
 C         3.126295        -0.608058         0.072043
 C         2.476978         0.468383         1.161619
 C         3.038427         1.877915         1.099412
 O         2.803000         2.680964        -0.083475
 C         3.008735         1.913473        -1.254345
 C         2.656165         0.357293        -1.063392
 H        -0.534407        -0.210595         0.847980
 H        -0.320153         1.478844         0.217811
 H        -0.484869         0.051722        -0.820619
 H         3.947253        -1.324279         0.080122
 H         2.115058         0.164011         2.145005
 H         2.722674         2.395391         1.945935
 H         4.119938         1.688009         1.220442
 H         2.137417         2.167359        -1.916372
 H         3.963570         2.136420        -1.824822
 H         2.512777        -0.003582        -2.057393
