19
Iteration:   609
 C        -0.069641         0.367681         0.036364
 C         1.413702         0.210341        -0.049096
 O         1.815148        -1.259396         0.055840
 C         3.123337        -0.487016         0.172590
 C         2.456299         0.435091         1.082262
 C         3.066592         1.862912         1.129266
 O         2.762698         2.563637        -0.087848
 C         3.000750         1.853899        -1.240643
 C         2.613494         0.370784        -1.071117
 H        -0.560924         0.102533         0.960473
 H        -0.417416         1.568119        -0.022170
 H        -0.478482        -0.055682        -0.899999
 H         4.051388        -1.108430         0.238355
 H         2.444815         0.004707         2.174148
 H         2.587504         2.519007         1.926087
 H         4.196762         1.904777         1.211838
 H         2.234704         2.413574        -2.056522
 H         3.977225         2.118587        -1.757833
 H         2.709021        -0.151390        -2.069101
