19
Iteration:  1591
 C        -0.161184         0.475400         0.088040
 C         1.415268         0.083972         0.006034
 O         1.901598        -1.314445         0.050468
 C         3.118663        -0.535396         0.033942
 C         2.555403         0.392464         1.100190
 C         2.869333         1.872691         1.136462
 O         2.823513         2.629169        -0.099931
 C         3.153612         1.889346        -1.299232
 C         2.545865         0.446251        -1.067017
 H        -0.538219         0.320545         1.193746
 H        -0.330765         1.569716        -0.122402
 H        -0.838150        -0.199082        -0.547187
 H         3.905467        -1.228624        -0.037904
 H         2.455131        -0.028187         2.155012
 H         2.072628         2.386428         1.794874
 H         3.760901         2.141162         1.685620
 H         2.595782         2.408891        -2.148200
 H         4.189553         1.869824        -1.332238
 H         2.416550        -0.222784        -1.929634
