19
Iteration:  4149charge 0 multiplicity 1
 C        -0.034952         0.339907        -0.093396
 C         1.430024         0.169701         0.077497
 O         1.842067        -1.237307         0.220917
 C         3.127381        -0.470849         0.055761
 C         2.522585         0.538406         1.152686
 C         3.016467         1.964564         1.095886
 O         2.859998         2.554681        -0.104519
 C         2.975935         1.801021        -1.296058
 C         2.428758         0.348824        -1.090072
 H        -0.433844        -0.136697         0.818511
 H        -0.299592         1.408828        -0.279316
 H        -0.487638        -0.154830        -0.965145
 H         4.038963        -1.108515         0.042633
 H         2.287843         0.003474         2.060246
 H         2.523903         2.616255         1.817783
 H         4.047575         1.891275         1.529841
 H         2.514342         2.384517        -2.118393
 H         4.077946         1.533618        -1.702395
 H         2.151740        -0.258656        -1.979526
