19
Iteration:  2998charge 0 multiplicity 1
 C        -0.052380         0.508658         0.005100
 C         1.421544         0.117358         0.094384
 O         1.869287        -1.326496         0.119831
 C         3.152599        -0.543718        -0.011935
 C         2.600496         0.508717         1.087121
 C         2.971186         2.005033         1.108895
 O         2.717261         2.575594        -0.118300
 C         3.028491         1.789089        -1.214651
 C         2.506808         0.301158        -1.074128
 H        -0.667661         0.298248         0.946520
 H        -0.122112         1.489963        -0.357970
 H        -0.486845        -0.191541        -0.794644
 H         4.209728        -1.025626         0.043913
 H         2.350503         0.130643         2.069847
 H         2.274855         2.413341         1.753565
 H         3.874019         2.275139         1.651166
 H         2.628734         2.336230        -2.090829
 H         4.179161         1.763541        -1.297605
 H         2.077576        -0.163969        -1.978429
