19
Iteration:  1319
 C        -0.003792         0.481203        -0.110454
 C         1.453808         0.115413         0.059667
 O         1.912643        -1.307306         0.037322
 C         3.135527        -0.536797         0.037685
 C         2.461293         0.502860         1.073392
 C         3.088862         1.977490         1.200911
 O         2.784788         2.591754        -0.043002
 C         2.901691         1.734491        -1.187855
 C         2.407050         0.362739        -1.038975
 H        -0.754102        -0.106670         0.613430
 H        -0.175964         1.603040         0.066783
 H        -0.338155         0.340322        -1.234786
 H         4.240173        -1.058285        -0.008883
 H         2.348928         0.189691         2.131384
 H         2.617506         2.665017         1.890790
 H         4.234823         1.918811         1.466576
 H         2.566626         2.369822        -2.058512
 H         3.958314         1.638667        -1.355564
 H         2.055932        -0.212904        -1.922912
