19
Iteration:   195
 C        -0.023078         0.413885         0.139206
 C         1.425574         0.163520        -0.056602
 O         1.777594        -1.243961        -0.003049
 C         3.097043        -0.611727         0.066376
 C         2.493305         0.464073         1.095795
 C         2.966851         1.917277         1.169512
 O         2.771935         2.700922        -0.080779
 C         3.055190         1.789139        -1.261389
 C         2.645653         0.321129        -1.061493
 H        -0.310162         0.123007         1.209445
 H        -0.360680         1.508728        -0.260264
 H        -0.559103        -0.203311        -0.581436
 H         3.914356        -1.207545         0.055834
 H         2.269050        -0.002765         2.015250
 H         2.432524         2.548505         1.867442
 H         4.049311         1.992066         1.453785
 H         2.416322         2.164802        -1.974317
 H         4.095407         1.837825        -1.589816
 H         2.579699        -0.006047        -2.046785
