19
Iteration:  2099
 C        -0.155227         0.344258         0.059546
 C         1.399598         0.124718        -0.087069
 O         1.856176        -1.336064        -0.030961
 C         3.069805        -0.529329         0.140802
 C         2.474560         0.486253         1.083066
 C         3.083166         2.053726         1.151713
 O         2.741620         2.594898        -0.096006
 C         3.163025         1.784811        -1.196133
 C         2.545161         0.446270        -1.046814
 H        -0.318922         0.090448         1.134790
 H        -0.459346         1.385004         0.069788
 H        -0.807034        -0.157499        -0.617549
 H         3.924567        -1.016851         0.304350
 H         2.442796         0.003600         2.085823
 H         2.359848         2.526480         1.904041
 H         4.180772         2.092116         1.254663
 H         2.647572         2.344983        -2.042530
 H         4.239341         1.686484        -1.339792
 H         2.509622        -0.074223        -2.082996
