19
Iteration:  4371charge 0 multiplicity 1
 C        -0.080484         0.380725         0.097054
 C         1.410991         0.156423         0.032368
 O         1.898141        -1.288382         0.132285
 C         3.112356        -0.497524         0.052093
 C         2.432198         0.505045         1.035664
 C         2.904084         2.017400         1.138421
 O         2.839601         2.569262        -0.145003
 C         3.174032         1.755888        -1.291226
 C         2.430087         0.358212        -1.074111
 H        -0.601639         0.085761         1.041058
 H        -0.202610         1.406820         0.163254
 H        -0.395955        -0.189922        -0.820255
 H         4.112963        -0.815828         0.122136
 H         2.524325         0.154702         2.095644
 H         2.309630         2.696424         1.800664
 H         4.052343         1.821564         1.442334
 H         2.634176         2.300084        -2.056305
 H         4.313408         1.601548        -1.537701
 H         2.096514        -0.119022        -2.025232
