19
Iteration:   925charge 0 multiplicity 1
 C         0.034207         0.512766         0.143544
 C         1.414212         0.106983        -0.037956
 O         1.867121        -1.328185        -0.002246
 C         3.162000        -0.537938         0.109382
 C         2.431796         0.473136         1.038812
 C         2.890585         1.889735         1.119583
 O         2.732175         2.611242        -0.101207
 C         3.087814         1.804044        -1.232837
 C         2.547073         0.387593        -1.069247
 H        -0.246200         0.375514         1.245369
 H        -0.046540         1.606550        -0.091428
 H        -0.635624         0.050201        -0.551623
 H         4.060039        -1.141143         0.182481
 H         2.144849         0.077284         1.990987
 H         2.456778         2.516605         1.886430
 H         3.973606         1.837242         1.403913
 H         2.490091         2.243968        -1.910976
 H         4.148442         1.994088        -1.485350
 H         2.497755        -0.177857        -1.969342
