19
Iteration:  3342
 C         0.007761         0.350122         0.050871
 C         1.421684         0.123896        -0.008251
 O         1.856086        -1.330401         0.089345
 C         3.060107        -0.470275         0.073025
 C         2.479685         0.560949         1.135660
 C         2.992428         1.975378         1.217884
 O         2.815306         2.601175        -0.158750
 C         3.062729         1.740272        -1.303918
 C         2.430085         0.409733        -1.067000
 H        -0.238582         0.435011         1.081611
 H        -0.184038         1.366458        -0.515139
 H        -0.524310        -0.378584        -0.464846
 H         4.202571        -0.899446         0.172928
 H         2.172208         0.104615         2.098705
 H         2.442891         2.612710         1.858652
 H         3.997669         2.022018         1.380587
 H         2.580239         2.119355        -2.173331
 H         4.178910         1.592129        -1.585012
 H         2.420219        -0.037388        -2.015747
