19
Iteration:  4856
 C         0.003998         0.501889        -0.072935
 C         1.398578         0.053911         0.057775
 O         1.883790        -1.323681         0.136873
 C         3.117351        -0.410479         0.126206
 C         2.544202         0.518917         1.106098
 C         3.082590         1.975867         1.049520
 O         2.680726         2.581762        -0.112104
 C         2.979533         1.689047        -1.184705
 C         2.473027         0.346391        -1.060373
 H        -0.456724         0.623779         0.866008
 H        -0.014880         1.447967        -0.682890
 H        -0.685327         0.001744        -0.690128
 H         4.072257        -0.998590         0.183188
 H         2.354950         0.141770         2.073051
 H         2.550500         2.665079         1.831475
 H         4.120545         1.851740         1.126011
 H         2.452604         2.146950        -1.990200
 H         4.041889         1.747800        -1.554289
 H         2.583001        -0.316742        -1.904919
