19
Iteration:  2339
 C         0.052333         0.496762        -0.053906
 C         1.474709         0.123109        -0.012877
 O         1.866488        -1.356649         0.089533
 C         3.106473        -0.526369         0.053352
 C         2.508364         0.463237         1.157864
 C         2.950311         1.992146         1.146965
 O         2.768491         2.581373        -0.089797
 C         2.984681         1.783817        -1.149237
 C         2.455662         0.388355        -1.114498
 H        -0.445754        -0.111075         0.815073
 H        -0.053463         1.555938        -0.153647
 H        -0.429144         0.194430        -1.015109
 H         4.105353        -1.013188         0.112456
 H         2.383579        -0.076473         2.117169
 H         2.461357         2.749469         1.838789
 H         4.065521         2.030574         1.300738
 H         2.329966         2.266945        -1.988738
 H         4.019281         1.856582        -1.380445
 H         2.258964        -0.154587        -2.064024
