19
Iteration:  1156
 C        -0.010573         0.400852        -0.058306
 C         1.437429         0.131416        -0.016029
 O         1.886055        -1.309635         0.024960
 C         3.085715        -0.516995         0.170007
 C         2.420932         0.495741         1.154755
 C         3.102846         1.820482         1.055037
 O         2.742428         2.657718        -0.049258
 C         2.939354         1.861316        -1.214528
 C         2.520058         0.434179        -1.056662
 H        -0.655017        -0.051520         0.841313
 H         0.115809         1.427860         0.102173
 H        -0.501161         0.364890        -1.112981
 H         4.076885        -1.117388         0.379936
 H         2.210710         0.111879         2.166801
 H         2.927958         2.363660         2.067096
 H         4.175942         1.467566         0.991135
 H         2.416927         2.371435        -2.039519
 H         4.029965         1.705160        -1.505813
 H         2.438951        -0.182130        -2.005137
