19
Iteration:  4015charge 0 multiplicity 1
 C        -0.055853         0.478366         0.066289
 C         1.411908         0.109588         0.009586
 O         1.929394        -1.260743         0.141808
 C         3.056590        -0.510654         0.120379
 C         2.532195         0.485441         1.087180
 C         2.925008         1.962483         1.059084
 O         2.721450         2.629441        -0.141091
 C         3.099688         1.705542        -1.291112
 C         2.540076         0.269515        -1.073018
 H        -0.472058         0.221283         1.018767
 H         0.012296         1.727737         0.090452
 H        -0.552697         0.191898        -0.824660
 H         4.068580        -1.022323        -0.103109
 H         2.460781         0.188137         2.056454
 H         2.277806         2.486182         1.802143
 H         3.994937         2.051310         1.616235
 H         2.634884         2.269670        -2.111049
 H         4.096462         1.702193        -1.407541
 H         2.195943        -0.172002        -1.983823
