19
Iteration:  1603charge 0 multiplicity 1
 C        -0.033261         0.402277         0.084271
 C         1.388352         0.162475         0.054751
 O         1.823620        -1.301257         0.036410
 C         3.153236        -0.489212        -0.028296
 C         2.587320         0.461652         1.093121
 C         2.838087         1.930678         1.179010
 O         2.833580         2.593767        -0.075511
 C         3.139807         1.781899        -1.216890
 C         2.489515         0.395332        -1.109624
 H        -0.553818         0.272127         1.141109
 H        -0.148375         1.427357        -0.245433
 H        -0.572306        -0.188072        -0.775081
 H         4.123255        -0.900624         0.015047
 H         2.289269        -0.010209         2.091939
 H         2.007614         2.310698         1.832256
 H         3.838600         2.073169         1.587151
 H         2.677607         2.320573        -2.100577
 H         4.126210         1.756415        -1.578287
 H         2.191174         0.066274        -2.111144
