19
Iteration:  2021charge 0 multiplicity 1
 C         0.030908         0.418506        -0.151176
 C         1.448072         0.096933         0.071595
 O         1.839160        -1.347285         0.130607
 C         3.112844        -0.463414         0.097778
 C         2.517107         0.511726         1.101889
 C         2.962277         1.899432         1.184249
 O         2.920622         2.588775        -0.084061
 C         2.883940         1.864346        -1.256352
 C         2.468652         0.397907        -1.077078
 H        -0.705355         0.016541         0.604595
 H        -0.129756         1.432216         0.066233
 H        -0.331841         0.047078        -1.126126
 H         3.996169        -0.928215         0.159614
 H         2.509118        -0.000176         2.103382
 H         2.312143         2.364419         2.031219
 H         3.988873         1.952643         1.531409
 H         2.245733         2.413127        -2.040794
 H         3.846790         1.873583        -1.777969
 H         2.278410        -0.190891        -2.035993
