19
Iteration:  4401charge 0 multiplicity 1
 C        -0.068478         0.452466         0.129356
 C         1.432458         0.142649        -0.061731
 O         1.786060        -1.338067         0.095357
 C         3.156573        -0.552753         0.168990
 C         2.510361         0.453523         1.070657
 C         2.947520         1.987511         1.079633
 O         2.799550         2.659738        -0.161575
 C         3.049708         1.779094        -1.289274
 C         2.573094         0.335622        -1.027498
 H        -0.534345        -0.099242         0.998474
 H        -0.339225         1.583770         0.112342
 H        -0.659368        -0.104525        -0.745119
 H         4.180284        -1.026411         0.273361
 H         2.490914         0.176508         2.136487
 H         2.319114         2.655473         1.825603
 H         3.922542         2.046396         1.363002
 H         2.568562         2.294611        -2.193336
 H         4.106889         1.899418        -1.660990
 H         2.605279        -0.201209        -1.986728
