19
Iteration:  4721charge 0 multiplicity 1
 C        -0.055346         0.437357         0.130542
 C         1.461948         0.178647        -0.020744
 O         1.824818        -1.291810         0.097947
 C         3.100892        -0.496943         0.140120
 C         2.476872         0.488770         1.099679
 C         2.887818         1.917444         1.118955
 O         2.768978         2.609323        -0.187471
 C         3.092544         1.732706        -1.345472
 C         2.606236         0.399456        -1.056334
 H        -0.367695         0.040072         1.138270
 H        -0.342656         1.440627         0.167640
 H        -0.478497        -0.139696        -0.733742
 H         4.059618        -0.945061         0.241525
 H         2.345694         0.066498         2.136448
 H         2.236620         2.597641         1.824094
 H         4.049742         1.839862         1.503784
 H         2.727315         2.240027        -2.286493
 H         4.224426         1.760677        -1.567519
 H         2.436867        -0.316784        -1.890576
