19
Iteration:   552charge 0 multiplicity 1
 C        -0.080962         0.445188         0.015177
 C         1.384221         0.160256         0.067791
 O         1.861337        -1.287753         0.113998
 C         3.194640        -0.559750        -0.076006
 C         2.563357         0.462310         1.097493
 C         2.947051         1.890058         1.206619
 O         2.736403         2.617269        -0.134907
 C         3.140020         1.789598        -1.216550
 C         2.453753         0.402668        -1.081302
 H        -0.584519         0.282867         0.968671
 H        -0.241069         1.593567        -0.293229
 H        -0.703083        -0.077208        -0.642915
 H         4.121645        -1.158714        -0.310830
 H         2.598041         0.026613         2.163471
 H         2.152948         2.350882         1.837842
 H         3.945093         2.147774         1.686614
 H         2.845651         2.376842        -2.225859
 H         4.234120         1.713022        -1.105728
 H         2.089202        -0.062649        -1.995991
