19
Iteration:  1573
 C        -0.033137         0.471010         0.133312
 C         1.373715         0.131137        -0.011922
 O         1.873834        -1.376824        -0.013095
 C         3.139824        -0.500128         0.048961
 C         2.425077         0.452918         1.063946
 C         2.920509         1.922630         1.142375
 O         2.790357         2.661153        -0.099831
 C         3.055899         1.810493        -1.189379
 C         2.601580         0.367390        -1.093853
 H        -0.447588         0.393817         1.151638
 H        -0.149520         1.463872        -0.080936
 H        -0.667473        -0.118414        -0.562089
 H         4.173031        -0.887686         0.259074
 H         2.143040         0.004234         2.028204
 H         2.419646         2.409997         1.930331
 H         4.034011         1.919270         1.502089
 H         2.590877         2.226293        -2.065623
 H         4.204933         1.752829        -1.464623
 H         2.515704        -0.029926        -2.111302
