19
Iteration:  4597
 C        -0.074785         0.411661         0.053489
 C         1.402951         0.072009         0.027983
 O         1.844770        -1.310933         0.140823
 C         3.135593        -0.390452         0.110334
 C         2.447066         0.521135         1.091871
 C         2.985831         1.919984         1.119381
 O         2.801368         2.621029        -0.162828
 C         3.059118         1.769844        -1.340044
 C         2.532192         0.331120        -1.021785
 H        -0.448773        -0.190374         0.870895
 H        -0.199367         1.468293         0.039908
 H        -0.501122         0.239602        -0.894496
 H         4.207873        -0.755820        -0.002115
 H         2.199064         0.134136         2.090070
 H         2.681286         2.523378         1.889264
 H         3.993515         1.865953         1.195240
 H         2.455201         2.249630        -2.138781
 H         4.194992         1.704739        -1.361042
 H         2.466916        -0.274160        -1.923259
