19
Iteration:   667charge 0 multiplicity 1
 C        -0.116931         0.480462        -0.104032
 C         1.384437         0.114203         0.067653
 O         1.918551        -1.300773         0.151355
 C         3.173564        -0.478730        -0.004686
 C         2.534041         0.419181         1.133523
 C         2.997679         1.936124         1.166660
 O         2.765721         2.624991        -0.048804
 C         3.069532         1.792962        -1.264587
 C         2.405260         0.376518        -1.050925
 H        -0.764113        -0.118993         0.644806
 H        -0.075512         1.484492         0.050569
 H        -0.376116         0.293505        -1.255455
 H         4.023369        -1.036033        -0.207343
 H         2.598369        -0.123464         2.016936
 H         2.570673         2.376893         2.038110
 H         4.099194         1.943808         1.336157
 H         2.427067         2.271489        -1.970999
 H         4.100059         1.696334        -1.692202
 H         2.322512        -0.111405        -2.008719
