19
Iteration:   804
 C        -0.047098         0.413348        -0.060809
 C         1.387585         0.112189         0.012955
 O         1.894846        -1.343248         0.033749
 C         3.098950        -0.480126         0.145110
 C         2.497124         0.513444         1.104605
 C         3.048333         1.872106         1.141903
 O         2.858171         2.607952        -0.086637
 C         2.900103         1.838575        -1.216338
 C         2.508864         0.385742        -1.030292
 H        -0.675464        -0.002565         0.717507
 H        -0.212649         1.616003        -0.030456
 H        -0.437533         0.162314        -1.024280
 H         4.135932        -1.016260         0.080725
 H         2.265765         0.060621         2.142224
 H         2.699858         2.484257         2.014378
 H         4.147765         1.949600         1.318214
 H         2.255261         2.387575        -1.875628
 H         3.909084         1.913225        -1.718234
 H         2.386397        -0.106942        -2.034682
