19
Iteration:  3461charge 0 multiplicity 1
 C         0.075083         0.471034         0.036168
 C         1.436312         0.118496        -0.055479
 O         1.842076        -1.307264         0.146787
 C         3.139356        -0.452072         0.135206
 C         2.446046         0.476789         1.093515
 C         2.981759         1.921623         1.060779
 O         2.734944         2.647005        -0.154656
 C         2.987783         1.745396        -1.234643
 C         2.529851         0.300137        -1.024486
 H        -0.342681        -0.118284         0.816593
 H        -0.114732         1.607725         0.245134
 H        -0.507084         0.416843        -0.824239
 H         4.143185        -0.938080         0.044321
 H         2.034543         0.221988         2.111764
 H         2.523283         2.581251         1.756238
 H         4.111899         1.802326         1.102096
 H         2.426128         2.225428        -2.000325
 H         4.046068         1.749285        -1.548548
 H         2.536517        -0.411430        -1.802196
