19
Iteration:  3356charge 0 multiplicity 1
 C        -0.046307         0.402390         0.077355
 C         1.453296         0.114058         0.033284
 O         1.887920        -1.301769         0.059818
 C         3.114064        -0.385976         0.116787
 C         2.353506         0.510585         1.113510
 C         3.019404         1.955002         1.065191
 O         2.797159         2.578990        -0.130877
 C         3.049102         1.767125        -1.274484
 C         2.531902         0.332439        -1.084015
 H        -0.479682         0.480227         1.083821
 H        -0.301633         1.381180        -0.325383
 H        -0.604415        -0.425077        -0.403828
 H         4.043240        -0.928982         0.112964
 H         2.187168         0.092029         2.090104
 H         2.540096         2.623079         1.804436
 H         4.183429         1.797559         1.485577
 H         2.637108         2.407972        -2.077436
 H         4.178692         1.733328        -1.424088
 H         2.202364        -0.392924        -1.878037
