19
Iteration:   796charge 0 multiplicity 1
 C        -0.111802         0.459154        -0.051781
 C         1.366523         0.100904        -0.023716
 O         1.892541        -1.313536         0.078937
 C         3.123048        -0.535306         0.084711
 C         2.577735         0.439128         1.134798
 C         3.031018         1.940416         1.148772
 O         2.858877         2.644532        -0.057477
 C         2.917460         1.833283        -1.247137
 C         2.526893         0.398255        -1.010025
 H        -0.834671        -0.034776         0.647569
 H        -0.202338         1.503827        -0.100416
 H        -0.332105         0.012483        -0.999266
 H         4.027492        -1.030090        -0.051721
 H         2.293106        -0.084997         2.054029
 H         2.457658         2.431219         1.943676
 H         4.091721         1.868364         1.304367
 H         2.162781         2.224349        -2.095346
 H         3.949753         1.905689        -1.640433
 H         2.445341        -0.168806        -1.919859
