19
Iteration:   540
 C         0.012482         0.462808         0.074510
 C         1.478615         0.187387         0.060369
 O         1.808155        -1.298209         0.066540
 C         3.092221        -0.499716        -0.015187
 C         2.569980         0.433101         1.060472
 C         2.889565         1.970554         1.179719
 O         2.751066         2.577122        -0.062842
 C         3.111469         1.772202        -1.240337
 C         2.469968         0.362084        -1.130441
 H        -0.448709         0.191123         1.044846
 H        -0.216328         1.494943        -0.176707
 H        -0.267828        -0.207507        -0.719652
 H         4.081613        -0.992928         0.000254
 H         2.326942        -0.112040         1.985805
 H         2.189557         2.479249         1.849795
 H         3.957621         2.084893         1.555231
 H         2.697078         2.376093        -2.115779
 H         4.185438         1.679978        -1.404423
 H         2.299304        -0.166439        -2.040539
