19
Iteration:  3139charge 0 multiplicity 1
 C        -0.038894         0.398002         0.018875
 C         1.402219         0.123629         0.100498
 O         1.860048        -1.278282         0.133746
 C         3.148205        -0.477595         0.094992
 C         2.441663         0.453709         1.093118
 C         2.958763         1.901241         1.104824
 O         2.840154         2.620639        -0.138132
 C         3.022204         1.813019        -1.361945
 C         2.537991         0.419497        -1.011624
 H        -0.473871         0.155843         0.984947
 H        -0.290281         1.335795        -0.319311
 H        -0.427406        -0.392194        -0.631009
 H         4.109497        -0.968333         0.035288
 H         2.092420         0.059377         2.037988
 H         2.640613         2.654065         1.802638
 H         4.013409         1.862118         1.358961
 H         2.310940         2.332599        -2.091394
 H         4.025155         1.767618        -1.807149
 H         2.379399        -0.308327        -1.855243
