19
Iteration:  4070charge 0 multiplicity 1
 C        -0.138463         0.455321         0.047643
 C         1.433755         0.143823        -0.044199
 O         1.851505        -1.245156         0.127431
 C         3.150713        -0.495332         0.125274
 C         2.545938         0.532027         1.140529
 C         3.046826         1.971725         1.125400
 O         2.686393         2.535640        -0.182579
 C         3.031490         1.733407        -1.216815
 C         2.605888         0.317833        -1.060348
 H        -0.658338         0.195983         0.924724
 H        -0.216915         1.581640        -0.101995
 H        -0.533202        -0.070051        -0.751876
 H         4.092495        -1.160462         0.016224
 H         2.238949         0.128009         2.026503
 H         2.561232         2.659339         1.791250
 H         4.065671         1.851077         1.161286
 H         2.403856         2.094807        -2.069051
 H         4.180049         1.776686        -1.576892
 H         2.391546        -0.060419        -2.037026
