19
Iteration:  2309
 C        -0.138504         0.492394         0.100955
 C         1.417252         0.155243         0.020789
 O         1.906414        -1.329171         0.051206
 C         3.189065        -0.454504         0.119717
 C         2.417699         0.417183         1.059234
 C         2.888006         1.860419         1.086933
 O         2.821411         2.600187        -0.077790
 C         3.080912         1.816931        -1.263013
 C         2.621915         0.362123        -1.134869
 H        -0.562920         0.242282         1.056041
 H        -0.315116         1.635729         0.038337
 H        -0.596164        -0.006614        -0.733442
 H         4.107654        -0.773572         0.412412
 H         2.272920        -0.007508         2.039553
 H         2.169053         2.500242         1.787524
 H         3.877998         1.865577         1.429186
 H         2.370848         2.243023        -2.094155
 H         4.154815         2.023555        -1.436598
 H         2.412331        -0.309655        -2.046985
