19
Iteration:  3109charge 0 multiplicity 1
 C        -0.123098         0.380993        -0.073574
 C         1.347806         0.093933         0.024133
 O         1.868371        -1.351900         0.168230
 C         3.129113        -0.430158         0.078414
 C         2.582794         0.509031         1.054242
 C         3.103737         2.060504         1.157652
 O         2.804517         2.603997        -0.096626
 C         3.030020         1.782767        -1.279792
 C         2.396864         0.340966        -1.015686
 H        -0.576662        -0.102073         0.833240
 H        -0.457292         1.415616        -0.138447
 H        -0.506467        -0.200767        -0.961637
 H         4.212184        -0.897236        -0.111039
 H         2.259031         0.198542         2.067668
 H         2.562718         2.634313         1.929141
 H         4.251961         1.973229         1.282028
 H         2.582599         2.316348        -2.074097
 H         4.098020         1.559611        -1.433835
 H         2.445917        -0.235760        -1.971158
