19
Iteration:  2891
 C        -0.079998         0.376237        -0.059630
 C         1.410059         0.153598         0.019682
 O         1.891416        -1.286085         0.178848
 C         3.203037        -0.509703         0.002589
 C         2.543969         0.499774         1.159241
 C         2.970577         1.946087         1.210728
 O         2.886083         2.634563        -0.113584
 C         2.935110         1.725299        -1.303412
 C         2.386704         0.391875        -1.087442
 H        -0.691599        -0.155321         0.778611
 H        -0.105314         1.410646         0.095402
 H        -0.356008         0.063227        -1.133456
 H         4.213946        -1.008546         0.058238
 H         2.278352         0.043356         2.104097
 H         2.304930         2.599609         1.823735
 H         4.070142         2.027546         1.473690
 H         2.474499         2.366741        -1.960492
 H         3.996629         1.779011        -1.713385
 H         2.191021        -0.148900        -1.960641
