19
Iteration:  2416
 C        -0.054993         0.392765        -0.030925
 C         1.445916         0.113203        -0.010323
 O         1.821908        -1.352544         0.088121
 C         3.144944        -0.505349         0.099464
 C         2.419787         0.437240         1.135174
 C         3.015696         1.850822         1.058666
 O         2.801511         2.654911        -0.075954
 C         2.980688         1.895171        -1.250574
 C         2.580858         0.458418        -1.031891
 H        -0.465192         0.015795         0.951854
 H        -0.216553         1.502954        -0.166898
 H        -0.663655        -0.201418        -0.716762
 H         4.099273        -0.978012         0.279839
 H         2.190500         0.165008         2.161824
 H         2.697004         2.520175         1.900577
 H         4.144280         1.867407         1.314947
 H         2.520835         2.268309        -2.215611
 H         4.103613         2.030086        -1.504829
 H         2.464720        -0.185294        -1.928013
