19
Iteration:   368
 C        -0.007120         0.455521         0.091769
 C         1.503289         0.102417         0.055915
 O         1.774799        -1.282896         0.045397
 C         3.097318        -0.565890        -0.070558
 C         2.490779         0.483541         1.061319
 C         2.930277         1.944385         1.197054
 O         2.788328         2.572912        -0.090799
 C         3.053509         1.809395        -1.197630
 C         2.551224         0.388386        -1.104182
 H        -0.350363         0.253875         1.087059
 H         0.033345         1.565264        -0.213299
 H        -0.408533        -0.169795        -0.556957
 H         4.019833        -1.094163        -0.041813
 H         2.403758         0.187716         2.109762
 H         2.255663         2.427713         1.880623
 H         3.932710         2.222371         1.604393
 H         2.417264         2.276890        -1.997503
 H         4.069865         1.820212        -1.542100
 H         2.429021         0.003098        -2.103185
