19
Iteration:   724charge 0 multiplicity 1
 C        -0.093175         0.466038         0.137746
 C         1.337520         0.120670         0.027910
 O         1.881760        -1.356129        -0.017510
 C         3.127760        -0.528497         0.092388
 C         2.423855         0.475014         1.082221
 C         3.023129         1.902033         1.058360
 O         2.687688         2.614821        -0.082870
 C         3.137525         1.827193        -1.211329
 C         2.635814         0.440128        -1.114496
 H        -0.440171         0.281435         1.209684
 H        -0.298528         1.537526        -0.001098
 H        -0.837234        -0.177110        -0.496554
 H         4.058413        -1.148310         0.186332
 H         2.252584         0.011899         2.017937
 H         2.363158         2.348181         1.815640
 H         4.114543         2.019362         1.252739
 H         2.763642         2.447064        -1.946226
 H         4.266878         1.761431        -1.349203
 H         2.778865        -0.101832        -2.055679
