19
Iteration:   861charge 0 multiplicity 1
 C        -0.078740         0.356674        -0.021776
 C         1.441541         0.132066         0.047392
 O         1.795174        -1.307560         0.070207
 C         3.076950        -0.544825         0.038391
 C         2.575991         0.437780         1.094118
 C         3.041105         1.985937         1.199666
 O         2.767902         2.693379        -0.086614
 C         3.090927         1.827717        -1.240508
 C         2.487859         0.372810        -1.060400
 H        -0.629969        -0.173595         0.820208
 H        -0.368928         1.369628        -0.046195
 H        -0.377438        -0.087679        -0.952961
 H         3.896873        -1.118007        -0.153485
 H         2.426685         0.037557         2.069572
 H         2.512068         2.536931         1.964506
 H         4.153400         2.015633         1.334659
 H         2.589599         2.354460        -2.066893
 H         4.170088         1.735260        -1.478880
 H         2.236057        -0.106710        -2.000221
