19
Iteration:  2261
 C        -0.154559         0.373638        -0.047455
 C         1.391674         0.134090         0.064247
 O         1.857250        -1.333663         0.125198
 C         3.085124        -0.495213        -0.009381
 C         2.552030         0.501945         1.055328
 C         2.953561         1.930252         1.131214
 O         2.820473         2.646372        -0.104677
 C         3.133438         1.795645        -1.176764
 C         2.501495         0.457642        -1.028544
 H        -0.603131        -0.071478         0.966092
 H        -0.548343         1.364351        -0.117533
 H        -0.373408        -0.336813        -0.909722
 H         4.046952        -1.121978        -0.198869
 H         2.617999         0.001055         2.055833
 H         2.329897         2.515585         1.840547
 H         4.000288         1.936099         1.377028
 H         2.756678         2.314349        -2.127778
 H         4.210856         1.653854        -1.216878
 H         2.410760        -0.078240        -1.951448
