19
Iteration:  1003
 C        -0.036117         0.364748        -0.138634
 C         1.403219         0.135653         0.096719
 O         1.839336        -1.319171         0.120951
 C         3.080854        -0.522935         0.038647
 C         2.484457         0.502100         1.111252
 C         3.144969         1.863694         1.103900
 O         2.774816         2.647558        -0.051097
 C         2.964453         1.827072        -1.213527
 C         2.488043         0.433610        -1.037962
 H        -0.806099        -0.156822         0.591071
 H        -0.119582         1.400128         0.017886
 H        -0.351968         0.034103        -1.186728
 H         4.040605        -0.995733         0.039082
 H         2.335837         0.176017         2.116022
 H         2.691278         2.478410         1.876288
 H         4.227242         1.788807         1.186085
 H         2.720313         2.424427        -2.042553
 H         4.149055         1.949332        -1.355850
 H         2.171225        -0.049968        -1.970479
