19
Iteration:  1487charge 0 multiplicity 1
 C        -0.033403         0.459183        -0.056776
 C         1.426140         0.128452         0.013787
 O         1.861058        -1.318125         0.097892
 C         3.148556        -0.456820         0.045589
 C         2.435279         0.503106         1.089851
 C         3.074990         1.863646         1.150880
 O         2.765056         2.592537        -0.025743
 C         2.961833         1.815524        -1.248641
 C         2.518698         0.341261        -1.073289
 H        -0.510194        -0.175766         0.719662
 H        -0.236045         1.565529         0.194758
 H        -0.502545         0.307734        -1.062055
 H         4.208374        -0.907455         0.148263
 H         2.318846         0.157655         2.100972
 H         2.656709         2.458712         1.974779
 H         4.120982         1.806347         1.249962
 H         2.405613         2.316186        -2.047949
 H         3.981153         1.976132        -1.549032
 H         2.398742        -0.200300        -2.030308
