19
Iteration:  3046
 C        -0.099394         0.513963         0.079319
 C         1.387563         0.121556         0.042339
 O         1.928264        -1.297701         0.062729
 C         3.148826        -0.498437         0.127136
 C         2.493654         0.542876         1.096521
 C         2.935865         1.955312         1.110457
 O         2.714252         2.561220        -0.141476
 C         3.009101         1.730412        -1.294685
 C         2.610345         0.328727        -1.080951
 H        -0.615458        -0.071741         0.887331
 H        -0.068226         1.702803         0.206244
 H        -0.580179         0.254644        -0.911152
 H         4.029761        -1.169851         0.074021
 H         2.368497         0.044566         2.107110
 H         2.737020         2.461260         2.113251
 H         4.012043         1.946235         1.385344
 H         2.426636         2.169714        -2.095846
 H         4.052447         1.999215        -1.632965
 H         2.768452        -0.336461        -1.930532
