19
Iteration:    16charge 0 multiplicity 1
 C        -0.084453         0.426017         0.021664
 C         1.395166         0.294390         0.098201
 O         1.777981        -1.229921         0.072915
 C         3.162629        -0.399406        -0.038745
 C         2.617545         0.486348         1.027078
 C         3.011714         1.888005         1.231547
 O         2.765193         2.500531        -0.042402
 C         3.047671         1.715872        -1.218716
 C         2.509020         0.329534        -1.138155
 H        -0.713499         0.074296         0.862215
 H        -0.580784         1.368748        -0.220478
 H        -0.210730        -0.387379        -0.947481
 H         4.196893        -0.917082         0.100639
 H         2.633642        -0.219137         2.033005
 H         2.189478         2.391512         1.804817
 H         4.051440         2.138419         1.617587
 H         2.633705         2.377370        -2.053694
 H         4.169864         1.803624        -1.444242
 H         2.272435        -0.294875        -2.124912
