19
Iteration:  3485
 C        -0.035245         0.400817         0.099490
 C         1.397111         0.123485         0.073075
 O         1.827778        -1.269349         0.079193
 C         3.093914        -0.544927         0.114655
 C         2.496581         0.484873         1.114209
 C         3.010076         1.993258         1.139834
 O         2.719362         2.593911        -0.193438
 C         3.103868         1.791293        -1.327564
 C         2.592741         0.350643        -1.080247
 H        -0.543470         0.000090         0.967584
 H        -0.278098         1.459920        -0.056354
 H        -0.499870         0.026595        -0.791718
 H         4.091741        -1.105763         0.378370
 H         2.367105         0.181198         2.157635
 H         2.308603         2.578320         1.661589
 H         4.125585         2.098232         1.422390
 H         2.548319         2.286340        -2.098201
 H         4.155689         1.885641        -1.577785
 H         2.306824        -0.247524        -1.932562
