19
Iteration:   285charge 0 multiplicity 1
 C        -0.045111         0.416062         0.052966
 C         1.391221         0.164538        -0.027976
 O         1.764773        -1.287983         0.040111
 C         3.141175        -0.633147         0.122953
 C         2.441186         0.498557         1.101774
 C         3.068857         1.885969         1.058026
 O         2.799190         2.644935        -0.066748
 C         2.978615         1.862337        -1.208125
 C         2.699406         0.397844        -1.057557
 H        -0.562712        -0.222337         0.753384
 H        -0.509720         1.396122         0.197355
 H        -0.639855         0.061066        -0.972932
 H         4.129051        -1.214729         0.133155
 H         2.259844         0.131270         2.142021
 H         2.776180         2.529766         1.972579
 H         4.185296         1.839764         1.121584
 H         2.085588         2.213880        -1.773005
 H         3.903301         2.142640        -1.707652
 H         2.494144        -0.141773        -2.037161
