19
Iteration:  1446charge 0 multiplicity 1
 C         0.061185         0.369185         0.071487
 C         1.456934         0.143516         0.037056
 O         1.807197        -1.335453        -0.026848
 C         3.076865        -0.455374         0.040133
 C         2.442265         0.503464         1.075661
 C         2.935129         1.932947         1.142007
 O         2.812244         2.644800        -0.087832
 C         3.042436         1.799807        -1.215134
 C         2.558624         0.350003        -1.061874
 H        -0.296835         0.144168         0.999994
 H        -0.075804         1.552875        -0.014262
 H        -0.529311        -0.068120        -0.658795
 H         3.987221        -1.024200         0.087016
 H         2.234486         0.074286         2.036096
 H         2.280728         2.589271         1.891798
 H         4.025417         1.819405         1.582160
 H         2.458837         2.346174        -2.024661
 H         4.118081         1.597419        -1.247283
 H         2.252048        -0.152286        -1.988532
