19
Iteration:  4271charge 0 multiplicity 1
 C        -0.014774         0.504905        -0.092208
 C         1.423858         0.133699         0.028779
 O         1.905784        -1.347083         0.208628
 C         3.093935        -0.488684         0.123383
 C         2.533195         0.450372         1.113548
 C         3.019642         1.920248         1.082227
 O         2.702048         2.594660        -0.113233
 C         2.988987         1.792693        -1.320113
 C         2.504778         0.390321        -1.039629
 H        -0.523610         0.259580         0.835903
 H         0.032051         1.528998        -0.170371
 H        -0.434707         0.159560        -1.054263
 H         4.002360        -1.019498         0.210602
 H         2.304795         0.048290         2.095959
 H         2.767898         2.406243         1.962330
 H         4.174475         2.030269         1.289621
 H         2.329961         2.102825        -2.084806
 H         4.016522         1.818389        -1.510601
 H         2.253226        -0.190226        -1.941494
