19
Iteration:   707
 C         0.019884         0.385900         0.129864
 C         1.463667         0.137904        -0.079107
 O         1.797750        -1.268087         0.017817
 C         3.084987        -0.537221         0.050993
 C         2.460856         0.449810         1.084350
 C         2.946549         1.879689         1.157231
 O         2.696101         2.671819        -0.108576
 C         3.121303         1.817745        -1.210218
 C         2.599824         0.380991        -1.057046
 H        -0.322851         0.104852         1.115536
 H        -0.269385         1.533607         0.017138
 H        -0.555320        -0.062931        -0.591650
 H         4.058555        -1.112877         0.151270
 H         2.154849        -0.019582         2.127094
 H         2.685895         2.681415         1.897242
 H         4.040143         1.750226         1.287710
 H         2.665082         2.282999        -2.223070
 H         4.191509         1.977416        -1.364475
 H         2.326728        -0.220381        -1.974863
