19
Iteration:   380
 C         0.005917         0.482582         0.140744
 C         1.373435         0.179610        -0.018582
 O         1.862601        -1.315016         0.022449
 C         3.110436        -0.480213         0.060965
 C         2.527017         0.446377         1.095454
 C         2.914549         1.867567         1.145553
 O         2.775769         2.615300        -0.056971
 C         3.085574         1.791926        -1.290418
 C         2.565377         0.371522        -1.113040
 H        -0.379177         0.411600         1.132541
 H        -0.358483         1.542199        -0.168531
 H        -0.633931        -0.052865        -0.477457
 H         4.024573        -1.068495         0.010349
 H         2.273727        -0.154994         1.998074
 H         2.216080         2.393467         1.810388
 H         3.945558         1.770860         1.576523
 H         2.495970         2.274864        -2.097168
 H         4.144103         1.945207        -1.553792
 H         2.320339        -0.227555        -2.021621
