19
Iteration:  2740charge 0 multiplicity 1
 C        -0.006544         0.460612        -0.052958
 C         1.491062         0.129174        -0.011276
 O         1.872626        -1.327581         0.123033
 C         3.156478        -0.479576         0.125032
 C         2.399101         0.524127         1.144704
 C         3.072246         1.879259         1.123704
 O         2.787550         2.582943        -0.097358
 C         2.874818         1.814207        -1.293731
 C         2.566569         0.361627        -1.073233
 H        -0.364429         0.040007         0.887864
 H        -0.193288         1.462400        -0.119103
 H        -0.598374        -0.053068        -0.798614
 H         4.127186        -0.771300         0.203680
 H         2.180509        -0.021487         2.076793
 H         2.554449         2.630220         1.807336
 H         4.062351         1.841183         1.544233
 H         2.070677         2.390361        -1.928776
 H         3.908937         1.852768        -1.787283
 H         2.295093        -0.181905        -1.936057
