19
Iteration:  1269charge 0 multiplicity 1
 C        -0.007846         0.386469         0.091042
 C         1.476470         0.194524        -0.051577
 O         1.839858        -1.247388         0.027012
 C         3.056598        -0.498878         0.040937
 C         2.447127         0.472167         1.060880
 C         2.947295         1.929498         1.189746
 O         2.747038         2.594057        -0.081778
 C         3.114248         1.754028        -1.191666
 C         2.573208         0.376304        -1.126373
 H        -0.238295         0.024355         1.077793
 H        -0.355236         1.449688         0.004987
 H        -0.603175        -0.204942        -0.601986
 H         3.848802        -1.169452         0.034082
 H         2.144153         0.074208         2.039358
 H         2.586145         2.601239         2.043264
 H         4.009482         1.966944         1.309867
 H         2.585417         2.292025        -1.997936
 H         4.300020         1.825604        -1.252471
 H         2.293040        -0.222365        -2.034693
