19
Iteration:  4804
 C        -0.041809         0.365092        -0.075940
 C         1.418888         0.105084         0.015385
 O         1.780610        -1.281429         0.135953
 C         3.149124        -0.459259         0.141842
 C         2.548090         0.566770         1.133352
 C         3.114109         1.981085         1.129687
 O         2.798470         2.596252        -0.136870
 C         2.953714         1.773772        -1.287101
 C         2.495909         0.298528        -1.055493
 H        -0.521225        -0.170748         0.699368
 H        -0.412013         1.444709        -0.092402
 H        -0.625437         0.026427        -0.907567
 H         4.192419        -0.881785         0.210105
 H         2.175492         0.276561         2.101012
 H         2.599486         2.594953         1.798976
 H         4.256022         2.056418         1.489872
 H         2.266356         2.214997        -1.975143
 H         4.054949         1.827570        -1.620213
 H         2.339873        -0.448368        -1.802410
