19
Iteration:  4487
 C         0.019160         0.429761        -0.042401
 C         1.454422         0.103134         0.004408
 O         1.778768        -1.279472         0.161617
 C         3.131847        -0.537046         0.133748
 C         2.496288         0.532046         1.132266
 C         3.083005         1.919300         1.045781
 O         2.693528         2.637141        -0.085309
 C         2.963410         1.776878        -1.314302
 C         2.571015         0.361546        -1.063010
 H        -0.484781         0.311498         0.892368
 H        -0.132177         1.532127        -0.168840
 H        -0.326194        -0.248584        -0.786165
 H         4.210584        -0.960174         0.231334
 H         2.406543         0.173397         2.150999
 H         2.430873         2.341159         1.877200
 H         4.296423         1.942388         1.304485
 H         2.290857         2.096660        -2.180937
 H         4.073446         1.804911        -1.403246
 H         2.288703        -0.191161        -1.987320
