19
Iteration:  1499charge 0 multiplicity 1
 C         0.071879         0.436105        -0.091201
 C         1.438667         0.095414         0.000437
 O         1.804323        -1.352668         0.092323
 C         3.117091        -0.459597         0.126003
 C         2.540678         0.477772         1.093022
 C         3.101564         1.960431         1.136738
 O         2.729170         2.628365        -0.035499
 C         2.987034         1.811835        -1.204742
 C         2.412862         0.379365        -1.083805
 H        -0.585306        -0.215610         0.441852
 H        -0.280810         1.607443         0.186589
 H        -0.107293         0.141828        -1.135856
 H         4.111414        -1.030234        -0.015829
 H         2.221459        -0.099526         1.929725
 H         2.810858         2.558826         2.082728
 H         4.106048         1.826477         1.286677
 H         2.298728         2.371847        -1.909423
 H         3.966841         1.680362        -1.542962
 H         2.129274        -0.116768        -2.037160
