19
Iteration:  3544charge 0 multiplicity 1
 C        -0.086847         0.401442        -0.010732
 C         1.415549         0.120205         0.061266
 O         1.864654        -1.305583         0.148091
 C         3.134543        -0.535095         0.033308
 C         2.464767         0.525100         1.140120
 C         2.985503         1.953032         1.091784
 O         2.821675         2.648265        -0.155011
 C         3.032585         1.773795        -1.262905
 C         2.522582         0.380422        -1.040294
 H        -0.512812         0.382920         1.008744
 H        -0.308587         1.333372        -0.423935
 H        -0.560827        -0.484770        -0.530666
 H         4.108454        -1.061650         0.050824
 H         2.414980         0.168374         2.178252
 H         2.600770         2.689649         1.862948
 H         4.060645         1.957372         1.439247
 H         2.515975         2.200038        -2.174113
 H         4.054871         1.636838        -1.540073
 H         2.267953        -0.178586        -2.003187
