19
Iteration:  4043charge 0 multiplicity 1
 C        -0.002370         0.501227         0.037223
 C         1.484838         0.151292         0.058801
 O         1.805269        -1.375568         0.176727
 C         3.100153        -0.483293         0.095198
 C         2.609033         0.500664         1.111016
 C         2.920082         1.962946         1.057610
 O         2.670302         2.634387        -0.166038
 C         3.136295         1.780559        -1.237875
 C         2.464059         0.268206        -1.123063
 H        -0.608122         0.170385         0.939996
 H        -0.199186         1.527774        -0.054576
 H        -0.171107        -0.078630        -0.951540
 H         4.028035        -0.916045        -0.091065
 H         2.473479         0.129260         2.244022
 H         2.337141         2.563931         1.823597
 H         4.078780         1.954053         1.260382
 H         2.827944         2.338909        -2.125975
 H         4.332915         1.684839        -1.235232
 H         1.986500        -0.146899        -2.058589
