19
Iteration:  3113charge 0 multiplicity 1
 C        -0.120740         0.359364        -0.057115
 C         1.375307         0.093890         0.019620
 O         1.875969        -1.351596         0.151910
 C         3.110261        -0.431634         0.089025
 C         2.587832         0.548214         1.085906
 C         3.075774         1.994989         1.140524
 O         2.814071         2.607149        -0.096295
 C         3.007012         1.755786        -1.263019
 C         2.422513         0.377800        -1.058083
 H        -0.638497        -0.059402         0.824906
 H        -0.392592         1.547223        -0.217147
 H        -0.513228        -0.202056        -0.918354
 H         4.094194        -0.823281        -0.014169
 H         2.324669         0.201120         2.107333
 H         2.635073         2.777774         1.883987
 H         4.220065         2.064738         1.348312
 H         2.572761         2.374438        -2.075482
 H         4.096709         1.477603        -1.476855
 H         2.311154        -0.279013        -1.923545
