19
Iteration:  1760charge 0 multiplicity 1
 C        -0.059261         0.499721         0.105362
 C         1.418302         0.066193        -0.046803
 O         1.842858        -1.313766         0.051862
 C         3.134389        -0.486929         0.085770
 C         2.528912         0.441649         1.111707
 C         2.896443         1.861580         1.138455
 O         2.766420         2.597730        -0.098845
 C         3.077765         1.846166        -1.289072
 C         2.547937         0.401310        -1.091002
 H        -0.398768         0.409031         1.214151
 H        -0.054620         1.666021        -0.130363
 H        -0.563625        -0.204207        -0.572984
 H         4.143932        -1.102848         0.079679
 H         2.321028         0.056760         2.106538
 H         2.176416         2.370940         1.707076
 H         3.804402         2.141134         1.625089
 H         2.740249         2.374043        -2.175444
 H         4.240935         1.846736        -1.279392
 H         2.551254        -0.110587        -2.092656
