19
Iteration:  1280
 C        -0.042373         0.369486         0.052368
 C         1.418995         0.196081        -0.000990
 O         1.779294        -1.253389         0.120584
 C         3.170281        -0.579728         0.035071
 C         2.508148         0.483328         1.089815
 C         2.955667         1.862642         1.101619
 O         2.734853         2.594529        -0.057034
 C         3.144043         1.880420        -1.232718
 C         2.516089         0.402922        -1.122042
 H        -0.467074        -0.011651         0.951080
 H        -0.216891         1.453625        -0.006691
 H        -0.461564        -0.075705        -0.838337
 H         4.090401        -1.085500         0.134682
 H         2.229578        -0.012382         2.030109
 H         2.307314         2.379893         1.892060
 H         3.989807         1.839199         1.388315
 H         2.803919         2.445620        -2.122706
 H         4.317588         1.822004        -1.468236
 H         2.372407        -0.042396        -2.145232
