19
Iteration:    85
 C        -0.035029         0.437007         0.041950
 C         1.427179         0.146301        -0.035481
 O         1.886176        -1.282439         0.036201
 C         3.068827        -0.497038         0.129183
 C         2.419000         0.473974         1.126250
 C         3.096787         1.886856         1.150215
 O         2.765871         2.497255        -0.094363
 C         2.969885         1.859638        -1.263354
 C         2.560909         0.432934        -1.098230
 H        -0.459155         0.080480         1.062830
 H        -0.088040         1.666157         0.168524
 H        -0.569483         0.026936        -0.772271
 H         3.951105        -0.967324         0.307517
 H         2.064611         0.027348         2.022006
 H         2.641275         2.510403         1.895104
 H         4.216512         1.744620         1.288235
 H         2.424168         2.318578        -2.039742
 H         4.062476         1.850848        -1.685196
 H         2.478872        -0.023964        -2.018199
