19
Iteration:   180charge 0 multiplicity 1
 C        -0.101710         0.443523         0.085060
 C         1.456801         0.168392        -0.022157
 O         1.781983        -1.309150        -0.039572
 C         3.082704        -0.490620         0.123379
 C         2.488275         0.457299         1.138653
 C         3.065919         1.970698         1.241804
 O         2.746369         2.566229        -0.101931
 C         3.046892         1.831548        -1.309952
 C         2.648206         0.360671        -1.147667
 H        -0.321656         0.077335         1.110136
 H        -0.289208         1.485091         0.114088
 H        -0.639379        -0.136034        -0.632280
 H         4.016933        -1.148266         0.359151
 H         2.141022         0.039994         2.156217
 H         2.492018         2.399466         2.061588
 H         4.125824         1.929527         1.436353
 H         2.432724         2.275941        -2.166230
 H         4.078719         2.040280        -1.620391
 H         2.509518        -0.422002        -1.965069
