19
Iteration:  4469
 C         0.029457         0.469669        -0.127239
 C         1.465909         0.160862         0.061924
 O         1.823388        -1.335329         0.199190
 C         3.112321        -0.545658         0.076491
 C         2.586136         0.504415         1.112415
 C         3.069400         1.996992         1.116452
 O         2.675033         2.617321        -0.136693
 C         2.971771         1.820076        -1.210417
 C         2.451430         0.299333        -1.044778
 H        -0.631181         0.195303         0.796507
 H         0.026996         1.536181        -0.232043
 H        -0.283398        -0.309688        -0.966823
 H         3.886331        -1.260071         0.075378
 H         2.312146        -0.037173         2.058470
 H         2.760435         2.744468         1.938679
 H         4.068447         1.866893         1.071872
 H         2.474354         2.280057        -2.093068
 H         4.006995         1.819193        -1.559022
 H         2.408383        -0.262458        -1.993739
