19
Iteration:  2460
 C         0.021020         0.420098         0.029367
 C         1.432125         0.171821         0.032604
 O         1.876284        -1.318336         0.135024
 C         3.169219        -0.442286        -0.007227
 C         2.467071         0.490357         1.041572
 C         2.838598         1.885178         1.163626
 O         2.881670         2.564816        -0.087113
 C         3.056302         1.798734        -1.227057
 C         2.410187         0.421395        -1.054662
 H        -0.348924        -0.192906         0.847692
 H        -0.205210         1.466654        -0.242904
 H        -0.408626        -0.170178        -0.775863
 H         4.095887        -0.932871        -0.234373
 H         2.295178         0.017718         1.988006
 H         2.173926         2.439315         1.808274
 H         3.809284         2.146806         1.715201
 H         2.639326         2.395379        -2.102584
 H         4.182460         1.594229        -1.578379
 H         2.154881        -0.099694        -2.018387
