19
Iteration:  4601charge 0 multiplicity 1
 C        -0.059696         0.412752         0.050980
 C         1.377809         0.089985         0.006598
 O         1.876503        -1.335883         0.141741
 C         3.107145        -0.412139         0.133992
 C         2.441618         0.512910         1.129438
 C         3.015296         1.921544         1.074458
 O         2.793133         2.627721        -0.146095
 C         3.049788         1.773905        -1.333413
 C         2.554641         0.321801        -1.062280
 H        -0.596350        -0.034269         0.942073
 H        -0.264282         1.484937         0.162845
 H        -0.510068         0.208585        -0.977901
 H         4.131234        -0.689539         0.186370
 H         2.172931         0.057398         2.105347
 H         2.591199         2.664263         1.917899
 H         4.173164         1.866154         1.195057
 H         2.454353         2.256548        -2.123516
 H         4.165283         1.783930        -1.387972
 H         2.375399        -0.169539        -2.040666
