19
Iteration:  2210
 C        -0.084479         0.439056        -0.067270
 C         1.431195         0.136991        -0.047683
 O         1.872018        -1.301466         0.059901
 C         3.136966        -0.541310         0.154864
 C         2.452469         0.486776         1.117775
 C         3.075821         1.866605         1.128940
 O         2.766936         2.654440        -0.095812
 C         2.970262         1.825443        -1.186079
 C         2.593881         0.357380        -1.041160
 H        -0.559309         0.089356         0.814349
 H        -0.132817         1.496155         0.193999
 H        -0.527743         0.040745        -0.929096
 H         4.031244        -1.039982         0.214170
 H         2.062390         0.033548         2.023948
 H         2.623746         2.497152         2.014063
 H         4.221530         1.952568         1.187386
 H         2.150001         2.149711        -1.927505
 H         3.891190         2.038767        -1.794089
 H         2.353002        -0.206342        -2.027155
