19
Iteration:  3732charge 0 multiplicity 1
 C        -0.127440         0.371210        -0.076216
 C         1.371956         0.095074         0.060286
 O         1.871759        -1.230929         0.194914
 C         3.181939        -0.549500         0.087653
 C         2.581761         0.553606         1.052586
 C         3.002692         1.935710         1.151443
 O         2.859157         2.636090        -0.173596
 C         2.952602         1.800051        -1.227407
 C         2.489630         0.331695        -1.063857
 H        -0.700228         0.231434         0.820736
 H        -0.243041         1.498255        -0.405473
 H        -0.622862        -0.260574        -0.779242
 H         4.096466        -1.288864         0.041070
 H         2.405491         0.181818         2.061047
 H         2.522101         2.574638         2.041056
 H         3.982283         1.911592         1.555166
 H         2.313099         2.225620        -2.054650
 H         4.084910         1.845475        -1.604095
 H         2.280669        -0.301736        -1.921457
