19
Iteration:   124charge 0 multiplicity 1
 C        -0.099185         0.467623        -0.111012
 C         1.413058         0.067605         0.037261
 O         1.834547        -1.346450         0.136858
 C         3.057712        -0.571131         0.026191
 C         2.699719         0.484986         1.060364
 C         3.094126         1.997590         1.141662
 O         2.753126         2.614726        -0.062128
 C         3.009616         1.798759        -1.149078
 C         2.427931         0.421327        -1.049697
 H        -0.771912        -0.103477         0.468516
 H        -0.119685         1.471989        -0.011938
 H        -0.355654         0.365948        -1.248439
 H         4.008207        -1.309286        -0.094417
 H         2.507527         0.143006         2.191720
 H         2.497034         2.427165         2.029010
 H         4.163807         2.196001         1.399901
 H         2.306137         2.306680        -1.936001
 H         4.062861         1.765251        -1.384555
 H         2.308828        -0.008955        -2.164307
