19
Iteration:   923charge 0 multiplicity 1
 C         0.010847         0.517915         0.149247
 C         1.404693         0.090464        -0.037215
 O         1.877984        -1.326522         0.003168
 C         3.151762        -0.528700         0.114308
 C         2.442069         0.464428         1.033316
 C         2.898124         1.901631         1.106312
 O         2.729235         2.608576        -0.100704
 C         3.082671         1.794924        -1.214893
 C         2.573552         0.396840        -1.086617
 H        -0.247862         0.373268         1.203399
 H        -0.099789         1.684635        -0.113919
 H        -0.678185         0.069732        -0.535802
 H         4.128376        -1.189419         0.156692
 H         2.159961         0.033445         2.023586
 H         2.447084         2.510772         1.911082
 H         3.953332         1.846712         1.481286
 H         2.498075         2.329280        -1.949122
 H         4.203475         1.936345        -1.494081
 H         2.400255        -0.210503        -1.995261
