19
Iteration:  1931
 C        -0.179606         0.468508        -0.010300
 C         1.378641         0.179339        -0.016644
 O         1.879245        -1.308108         0.116927
 C         3.145682        -0.563021        -0.000376
 C         2.685438         0.464776         1.035848
 C         3.002464         1.985581         1.209287
 O         2.668592         2.576289        -0.093414
 C         3.140395         1.743073        -1.170075
 C         2.495696         0.377760        -1.093340
 H        -0.634267         0.232576         0.998147
 H        -0.327388         1.546529        -0.143452
 H        -0.505817        -0.199419        -0.855367
 H         4.011862        -1.036859        -0.033287
 H         2.368304         0.124747         2.054422
 H         2.148977         2.478206         1.841601
 H         3.945644         2.253129         1.577189
 H         2.871623         2.376890        -2.085796
 H         4.256235         1.707917        -1.237829
 H         2.321025        -0.099848        -2.037768
