19
Iteration:  3851
 C        -0.155067         0.519004         0.087397
 C         1.421804         0.107804         0.087470
 O         1.921404        -1.279051         0.097182
 C         3.139664        -0.499818         0.060873
 C         2.538024         0.503574         1.129940
 C         2.894012         1.990123         1.130595
 O         2.708910         2.544575        -0.189914
 C         3.136933         1.754067        -1.244928
 C         2.559937         0.256365        -1.124288
 H        -0.782878         0.384908         0.956134
 H         0.101757         1.672891         0.027008
 H        -0.517134         0.289917        -0.890196
 H         4.115296        -1.092266         0.123410
 H         2.263371         0.053424         2.018747
 H         2.327920         2.602709         1.753617
 H         4.047018         2.139542         1.486364
 H         2.500587         2.135844        -2.074331
 H         4.276901         1.778488        -1.478529
 H         2.403809        -0.242750        -2.056591
