19
Iteration:  1057charge 0 multiplicity 1
 C        -0.032102         0.470957         0.080048
 C         1.432601         0.141379        -0.026433
 O         1.866385        -1.345254         0.064197
 C         3.124074        -0.469644         0.031347
 C         2.440989         0.431089         1.066776
 C         2.852822         1.875416         1.155711
 O         2.846425         2.621873        -0.084037
 C         3.074117         1.813860        -1.246112
 C         2.529785         0.410954        -1.094626
 H        -0.324287         0.149577         1.203602
 H        -0.144722         1.501618        -0.113897
 H        -0.749210        -0.105393        -0.634258
 H         4.208453        -0.765665         0.097575
 H         2.243423         0.026211         2.026240
 H         2.394324         2.420245         1.989309
 H         3.946671         1.838093         1.502024
 H         2.687098         2.284691        -2.133609
 H         4.227349         1.753193        -1.281613
 H         2.284836        -0.067075        -2.036057
