19
Iteration:  1493charge 0 multiplicity 1
 C         0.032582         0.479657        -0.062796
 C         1.432447         0.106692         0.007957
 O         1.828895        -1.339088         0.091357
 C         3.156238        -0.446199         0.102936
 C         2.456205         0.489454         1.060832
 C         3.074527         1.918707         1.158897
 O         2.751371         2.600275        -0.019498
 C         2.988697         1.819397        -1.258405
 C         2.445825         0.327430        -1.075706
 H        -0.518645        -0.257536         0.586741
 H        -0.290683         1.448827         0.149012
 H        -0.291391         0.199803        -1.083560
 H         4.119125        -0.868224         0.003991
 H         2.293186         0.088873         2.113702
 H         2.722961         2.486802         2.034751
 H         4.263549         1.817767         1.182802
 H         2.212237         2.343588        -1.868267
 H         4.127979         1.839408        -1.476422
 H         2.282490        -0.070598        -2.085839
