19
Iteration:  4324charge 0 multiplicity 1
 C        -0.089950         0.381341        -0.015939
 C         1.441798         0.134307         0.070082
 O         1.795962        -1.369754         0.153435
 C         3.120958        -0.484081         0.087234
 C         2.489504         0.502322         1.118293
 C         3.043102         1.944872         1.084644
 O         2.821802         2.637460        -0.139680
 C         3.024498         1.838041        -1.294347
 C         2.529685         0.385406        -1.066843
 H        -0.578903         0.090533         0.934086
 H        -0.437537         1.428934        -0.069841
 H        -0.363328        -0.358380        -0.806210
 H         3.987452        -1.179094         0.201173
 H         2.276071         0.373598         2.133668
 H         2.439105         2.592143         1.861800
 H         4.163653         1.913579         1.248722
 H         2.497494         2.302766        -2.215391
 H         4.174892         1.826309        -1.377175
 H         2.487534        -0.149402        -2.020385
