19
Iteration:  1933charge 0 multiplicity 1
 C        -0.162159         0.469027         0.002373
 C         1.401814         0.181413         0.002002
 O         1.863297        -1.311518         0.119588
 C         3.139121        -0.553639         0.010942
 C         2.672999         0.475016         1.034385
 C         2.994784         1.977200         1.192589
 O         2.671851         2.570889        -0.089120
 C         3.144074         1.745690        -1.161927
 C         2.493244         0.388103        -1.114454
 H        -0.617845         0.160487         1.036840
 H        -0.345760         1.480356        -0.276087
 H        -0.458613        -0.187139        -0.887077
 H         4.056028        -1.044329        -0.098326
 H         2.326517         0.131511         2.064546
 H         2.138448         2.430486         1.824580
 H         3.969285         2.247015         1.505051
 H         2.860285         2.430339        -2.073555
 H         4.266762         1.690759        -1.165158
 H         2.281776        -0.135063        -2.100541
