19
Iteration:  3759charge 0 multiplicity 1
 C         0.010947         0.365687        -0.050634
 C         1.413161         0.173002         0.068406
 O         1.854006        -1.386889         0.155587
 C         3.083049        -0.444499         0.148676
 C         2.441508         0.555346         1.131032
 C         3.056986         1.947152         1.136517
 O         2.830747         2.608556        -0.191773
 C         2.993794         1.819526        -1.273034
 C         2.462694         0.365449        -1.101295
 H        -0.556791         0.197125         0.910754
 H        -0.301768         1.336446        -0.212740
 H        -0.354458        -0.219183        -0.970639
 H         4.072146        -0.855049         0.261844
 H         2.259175         0.048261         2.132286
 H         2.758050         2.644755         1.966850
 H         4.247945         1.629002         1.179495
 H         2.275489         2.237791        -1.976499
 H         4.083863         1.975234        -1.598967
 H         2.260760        -0.369402        -1.921299
