19
Iteration:   986charge 0 multiplicity 1
 C         0.010056         0.433079        -0.181799
 C         1.397671         0.113118         0.040840
 O         1.876641        -1.314386         0.201733
 C         3.112336        -0.448204         0.019625
 C         2.516641         0.466413         1.119160
 C         3.111231         1.929947         1.149554
 O         2.747319         2.611204        -0.015652
 C         3.038416         1.844566        -1.183926
 C         2.294806         0.366584        -1.097861
 H        -0.604743        -0.133196         0.407478
 H        -0.199193         1.564424        -0.114590
 H        -0.206897         0.063536        -1.177747
 H         4.024183        -1.186072         0.004156
 H         2.458575        -0.146078         2.094134
 H         2.945368         2.545146         2.083076
 H         4.222115         1.713364         1.113435
 H         2.533270         2.249561        -2.219030
 H         4.077250         1.818277        -1.511906
 H         2.232840        -0.149345        -2.123441
