19
Iteration:  4965charge 0 multiplicity 1
 C        -0.079126         0.339107         0.020293
 C         1.445356         0.127966         0.037602
 O         1.817293        -1.301667         0.163236
 C         3.075103        -0.445266         0.096104
 C         2.474829         0.574959         1.100302
 C         3.042955         1.989978         1.085143
 O         2.860890         2.625085        -0.143083
 C         3.009080         1.781353        -1.268781
 C         2.521505         0.262068        -1.098564
 H        -0.698292        -0.354162         0.540233
 H        -0.285619         1.445421         0.397044
 H        -0.317854         0.241387        -1.031718
 H         4.052017        -0.990104         0.041105
 H         2.385519         0.201156         2.083207
 H         2.508195         2.610962         1.893505
 H         4.125109         2.041553         1.558092
 H         2.410549         2.156825        -2.081137
 H         4.055035         1.831804        -1.519322
 H         2.285594        -0.369742        -1.960756
