19
Iteration:  3545charge 0 multiplicity 1
 C        -0.093707         0.403097        -0.010573
 C         1.415583         0.120326         0.061449
 O         1.863873        -1.304485         0.144213
 C         3.141439        -0.536231         0.039906
 C         2.467201         0.521144         1.131220
 C         2.989500         1.954467         1.089069
 O         2.822729         2.643659        -0.159829
 C         3.031942         1.783760        -1.259093
 C         2.519000         0.373870        -1.030985
 H        -0.504437         0.366772         1.008167
 H        -0.339995         1.380753        -0.443795
 H        -0.539786        -0.481621        -0.522787
 H         4.084902        -1.029598         0.099438
 H         2.410426         0.106037         2.172291
 H         2.567049         2.697212         1.875860
 H         4.097127         1.973938         1.435083
 H         2.498059         2.191638        -2.165276
 H         4.071170         1.662072        -1.559622
 H         2.265467        -0.186231        -1.993934
