19
Iteration:  4351charge 0 multiplicity 1
 C        -0.081216         0.352809         0.005696
 C         1.396833         0.168492         0.026351
 O         1.909321        -1.278952         0.161812
 C         3.073784        -0.420691        -0.006007
 C         2.499025         0.479767         1.095910
 C         2.997115         1.962932         1.174639
 O         2.859888         2.630003        -0.169920
 C         3.076366         1.726498        -1.220725
 C         2.388142         0.335639        -1.081513
 H        -0.599476         0.082195         0.945782
 H        -0.301517         1.417362         0.101358
 H        -0.539887        -0.263551        -0.739548
 H         4.019823        -0.958073         0.054227
 H         2.365997         0.217383         2.200764
 H         2.222253         2.458226         1.615680
 H         4.165914         2.103525         1.408858
 H         2.859754         2.158678        -2.181528
 H         4.139165         1.675523        -1.267626
 H         2.407431        -0.220236        -2.034242
