19
Iteration:   332
 C        -0.069067         0.478230        -0.042117
 C         1.324776         0.146167         0.139273
 O         1.899840        -1.345591         0.139708
 C         3.110094        -0.449808        -0.050324
 C         2.548393         0.458940         1.051784
 C         3.052020         1.844221         1.119888
 O         2.751597         2.596552        -0.079723
 C         3.057974         1.817273        -1.210807
 C         2.477651         0.419662        -1.057680
 H        -0.818428         0.075244         0.664632
 H        -0.225677         1.494675        -0.009497
 H        -0.447693         0.145637        -1.003458
 H         4.101260        -0.930882         0.060548
 H         2.452360        -0.120737         1.962594
 H         2.543450         2.359443         1.925646
 H         4.148796         1.889448         1.339479
 H         2.615993         2.386896        -2.066118
 H         4.118027         1.727622        -1.321093
 H         2.312067        -0.069231        -2.001597
