19
Iteration:  1840charge 0 multiplicity 1
 C        -0.002771         0.327554        -0.160094
 C         1.415237         0.178489         0.027972
 O         1.861065        -1.286201         0.188319
 C         3.060326        -0.538776         0.063846
 C         2.536580         0.477407         1.145264
 C         3.084152         1.877125         1.118534
 O         2.819649         2.635788        -0.040945
 C         2.962298         1.887441        -1.243706
 C         2.393878         0.391253        -1.075444
 H        -0.506904        -0.146044         0.646153
 H        -0.314059         1.551832        -0.092024
 H        -0.278712        -0.019270        -1.177492
 H         4.129752        -1.058660         0.086487
 H         2.208938         0.037262         2.090812
 H         2.610301         2.468005         1.898145
 H         4.153803         1.805004         1.215940
 H         2.530398         2.446781        -2.095738
 H         4.113187         1.855179        -1.532294
 H         2.310026        -0.186803        -1.998432
