19
Iteration:  2245
 C        -0.118810         0.286199        -0.074623
 C         1.359171         0.182076         0.063469
 O         1.888817        -1.258560         0.158221
 C         3.093872        -0.491948         0.003058
 C         2.529285         0.435728         1.159348
 C         3.068412         1.897456         1.143405
 O         2.754730         2.619982        -0.096340
 C         3.163634         1.843233        -1.252585
 C         2.437466         0.395060        -1.083294
 H        -0.652777        -0.083680         0.697180
 H        -0.133576         1.420378        -0.261697
 H        -0.592022         0.057986        -0.994221
 H         4.081683        -0.955530         0.024948
 H         2.184225         0.025536         2.094658
 H         2.421765         2.417166         1.834318
 H         4.218709         2.086751         1.448302
 H         2.713119         2.423682        -2.007149
 H         4.289371         1.711981        -1.339754
 H         2.023237         0.089014        -2.079937
