19
Iteration:  2455charge 0 multiplicity 1
 C         0.008672         0.430063        -0.001090
 C         1.455406         0.178440         0.017487
 O         1.877423        -1.308620         0.119890
 C         3.189491        -0.462780        -0.019563
 C         2.462794         0.511769         1.059095
 C         2.863589         1.911054         1.189479
 O         2.877980         2.577584        -0.096583
 C         3.022507         1.779260        -1.228517
 C         2.416942         0.380473        -1.040254
 H        -0.261778        -0.123401         0.947607
 H        -0.349276         1.450971        -0.181642
 H        -0.545187        -0.158286        -0.778630
 H         4.233167        -0.962164        -0.299552
 H         2.272303         0.012945         2.047275
 H         2.101340         2.481728         1.789029
 H         3.817974         1.923992         1.734461
 H         2.601377         2.400699        -1.996526
 H         4.034947         1.503812        -1.425186
 H         2.227343        -0.019982        -2.020691
