19
Iteration:  3860charge 0 multiplicity 1
 C         0.006489         0.535915         0.094024
 C         1.362226         0.143244        -0.016686
 O         1.942449        -1.315820         0.130817
 C         3.106630        -0.491654         0.062081
 C         2.450797         0.480173         1.138767
 C         2.915305         1.960984         1.131114
 O         2.721566         2.569582        -0.187510
 C         3.049797         1.709872        -1.269228
 C         2.602270         0.352519        -1.074447
 H        -0.573145         0.280007         1.012475
 H        -0.107852         1.634450        -0.001908
 H        -0.640848         0.131816        -0.768653
 H         4.016640        -1.143062         0.253545
 H         2.421140         0.047819         2.137667
 H         2.302382         2.567666         1.714435
 H         3.975629         1.995529         1.346354
 H         2.683282         2.282411        -2.169173
 H         4.254875         1.617141        -1.502446
 H         2.367625        -0.218540        -1.996679
