19
Iteration:   580
 C        -0.005765         0.439121         0.036246
 C         1.363048         0.149067         0.065330
 O         1.850429        -1.399916         0.057714
 C         3.143574        -0.483272         0.009395
 C         2.477292         0.491776         1.054448
 C         3.038361         1.948364         1.161735
 O         2.737769         2.649949        -0.088438
 C         3.106572         1.793967        -1.184177
 C         2.435721         0.362392        -1.107111
 H        -0.686273         0.305970         0.914709
 H        -0.231138         1.386960        -0.308794
 H        -0.578479        -0.218764        -0.752851
 H         4.135245        -0.897349        -0.042640
 H         2.489929         0.108445         2.031737
 H         2.518668         2.513626         1.919429
 H         4.112606         1.981812         1.300433
 H         2.860706         2.359454        -1.988968
 H         4.222673         1.740019        -1.032559
 H         2.281271        -0.149229        -2.072488
