19
Iteration:  3980charge 0 multiplicity 1
 C        -0.004635         0.387925         0.049891
 C         1.432257         0.114447        -0.024418
 O         1.828631        -1.277981         0.107508
 C         3.097256        -0.478135         0.159491
 C         2.441288         0.545993         1.157406
 C         2.999297         1.956499         1.083807
 O         2.821460         2.614022        -0.153696
 C         3.011112         1.760484        -1.314570
 C         2.567851         0.335800        -1.045464
 H        -0.495689         0.025054         0.946911
 H        -0.131842         1.495751        -0.028617
 H        -0.587653        -0.038328        -0.756892
 H         4.068071        -1.045382         0.099842
 H         2.230424         0.076422         2.138354
 H         2.428272         2.628951         1.824039
 H         4.158024         1.904466         1.335568
 H         2.300384         2.099727        -2.087063
 H         3.969829         1.890377        -1.698418
 H         2.374243        -0.337074        -1.921018
