19
Iteration:   864charge 0 multiplicity 1
 C        -0.043856         0.349384        -0.022640
 C         1.445046         0.152766         0.065216
 O         1.784308        -1.304964         0.071606
 C         3.085161        -0.552193         0.011848
 C         2.579222         0.440872         1.121340
 C         3.037501         1.989455         1.202663
 O         2.757264         2.698197        -0.107975
 C         3.096688         1.820711        -1.203390
 C         2.456364         0.394095        -1.093135
 H        -0.611460        -0.141070         0.785480
 H        -0.257383         1.362381        -0.013047
 H        -0.407162        -0.161544        -0.973267
 H         3.960329        -1.166839        -0.164032
 H         2.414581         0.036283         2.126351
 H         2.456315         2.518379         1.957395
 H         4.095036         1.892383         1.404653
 H         2.597528         2.382911        -2.129788
 H         4.150977         1.624362        -1.478915
 H         2.306868        -0.222382        -2.005779
