19
Iteration:  2182charge 0 multiplicity 1
 C         0.076275         0.514329        -0.070732
 C         1.484706         0.132879         0.005860
 O         1.868704        -1.370613         0.080426
 C         3.093969        -0.537233         0.177789
 C         2.438094         0.449851         1.139879
 C         3.003312         1.829340         1.094767
 O         2.766495         2.606896        -0.084888
 C         2.878221         1.882552        -1.283394
 C         2.567239         0.417015        -1.028094
 H        -0.543350         0.167932         0.853915
 H         0.177401         1.669728        -0.035686
 H        -0.467580         0.146972        -1.024249
 H         4.183897        -1.030300         0.059965
 H         2.092305         0.092365         2.131514
 H         2.481859         2.332291         1.872500
 H         3.998291         1.960792         1.393957
 H         2.267448         2.400587        -2.032900
 H         3.865547         1.944902        -1.787484
 H         2.525733        -0.184922        -1.882874
