19
Iteration:   606charge 0 multiplicity 1
 C        -0.037820         0.371952         0.021334
 C         1.394351         0.192117        -0.046522
 O         1.836996        -1.231504         0.058502
 C         3.104705        -0.507211         0.158099
 C         2.467697         0.423258         1.096622
 C         3.046508         1.886109         1.130056
 O         2.762455         2.568058        -0.078655
 C         3.016272         1.823408        -1.253442
 C         2.589066         0.397251        -1.080208
 H        -0.500012         0.104030         0.942580
 H        -0.367397         1.461439        -0.034745
 H        -0.560616        -0.076167        -0.739793
 H         4.042544        -1.129037         0.193272
 H         2.321519         0.005210         2.154495
 H         2.643396         2.554680         1.920310
 H         4.173483         1.880352         1.149228
 H         2.289129         2.358867        -2.006908
 H         3.975239         2.063241        -1.614946
 H         2.667441        -0.100276        -2.044975
