19
Iteration:  1808charge 0 multiplicity 1
 C        -0.167157         0.340404        -0.054179
 C         1.384502         0.102233         0.011400
 O         1.847336        -1.295483         0.024719
 C         3.084725        -0.456691         0.080567
 C         2.592336         0.518376         1.096179
 C         3.066359         1.954323         1.133746
 O         2.774875         2.602976        -0.068369
 C         3.106936         1.780336        -1.182578
 C         2.437580         0.389471        -1.066566
 H        -0.455640         0.192452         0.938600
 H        -0.238837         1.543009        -0.117532
 H        -0.637584        -0.344720        -0.736824
 H         4.097309        -0.846204         0.256284
 H         2.486935        -0.008243         2.059807
 H         2.528979         2.542642         1.929805
 H         4.119605         2.148171         1.331760
 H         2.739005         2.339789        -2.073094
 H         4.229942         1.755038        -1.270036
 H         2.353355        -0.233628        -1.939447
