19
Iteration:  4173charge 0 multiplicity 1
 C        -0.127980         0.371210         0.063015
 C         1.377152         0.122735         0.055490
 O         1.859077        -1.314020         0.136663
 C         3.100118        -0.515614         0.121032
 C         2.508594         0.508017         1.098727
 C         3.013009         1.971434         1.059128
 O         2.822352         2.676563        -0.159948
 C         3.108820         1.785344        -1.253666
 C         2.502652         0.359806        -1.088347
 H        -0.638219        -0.050625         1.029553
 H        -0.205263         1.427748        -0.141530
 H        -0.691471        -0.063465        -0.879621
 H         4.055866        -0.943361         0.240358
 H         2.127236         0.015396         2.047961
 H         2.480744         2.450088         1.859269
 H         4.057859         1.996684         1.379962
 H         2.558340         2.164164        -2.131816
 H         4.202973         1.641536        -1.695698
 H         2.608088        -0.119584        -2.091004
