19
Iteration:  3322
 C        -0.161954         0.389002         0.008279
 C         1.342417         0.155991         0.100659
 O         1.868246        -1.287125         0.186311
 C         3.156906        -0.494975         0.008090
 C         2.559023         0.466936         1.041801
 C         2.962867         1.962907         1.057090
 O         2.853961         2.655169        -0.109465
 C         3.038902         1.798541        -1.257248
 C         2.555578         0.307023        -1.069712
 H        -0.498069         0.237263         0.994325
 H        -0.324036         1.405859        -0.505347
 H        -0.526841        -0.332863        -0.655835
 H         4.017415        -1.215610         0.088334
 H         2.415096         0.129852         2.059702
 H         2.167854         2.309620         1.724258
 H         4.073645         2.150752         1.735451
 H         2.553592         2.318358        -2.063730
 H         4.158892         1.881516        -1.431144
 H         2.212437        -0.244873        -1.934953
