19
Iteration:  3400charge 0 multiplicity 1
 C         0.046761         0.408600        -0.026150
 C         1.457015         0.129270         0.071202
 O         1.793979        -1.276104         0.156619
 C         3.134502        -0.563164         0.074164
 C         2.544775         0.548464         1.097232
 C         2.991746         2.004954         1.075836
 O         2.733421         2.620792        -0.116949
 C         2.991558         1.792346        -1.232381
 C         2.455152         0.290773        -1.101808
 H        -0.551390        -0.076850         0.784830
 H        -0.095275         1.460904        -0.051116
 H        -0.206092        -0.165652        -0.979549
 H         4.067495        -1.165357         0.205198
 H         2.359891         0.299068         2.125112
 H         2.796712         2.544571         2.012852
 H         4.001588         1.860114         1.225353
 H         2.541703         2.415732        -2.063945
 H         4.129935         1.780121        -1.381438
 H         2.298498        -0.249681        -2.099955
