19
Iteration:    30
 C        -0.100536         0.378686        -0.020303
 C         1.454811         0.183125         0.022737
 O         1.823134        -1.184645         0.118354
 C         3.103737        -0.496675        -0.058877
 C         2.632136         0.453766         1.145837
 C         2.962195         1.922283         1.222705
 O         2.776119         2.527522        -0.063864
 C         3.110834         1.778434        -1.270856
 C         2.442400         0.421749        -1.112828
 H        -0.396879         0.091093         1.019242
 H        -0.310903         1.477674        -0.356116
 H        -0.554930        -0.319159        -0.720021
 H         3.940807        -1.092799        -0.268015
 H         2.400339        -0.014368         2.081688
 H         2.330956         2.350743         2.001292
 H         3.988506         2.066468         1.623901
 H         2.610245         2.284766        -2.064266
 H         4.212734         1.585683        -1.416586
 H         2.171464        -0.057344        -2.005359
