19
Iteration:  4134charge 0 multiplicity 1
 C        -0.074239         0.355253        -0.077853
 C         1.364725         0.147552         0.027454
 O         1.882484        -1.275861         0.185469
 C         3.073337        -0.459425         0.148804
 C         2.561857         0.522838         1.081471
 C         3.099917         1.908050         1.226911
 O         2.855901         2.611004        -0.180700
 C         2.945276         1.705700        -1.296338
 C         2.445670         0.397406        -1.085028
 H        -0.757999         0.100892         0.654618
 H        -0.284378         1.404344        -0.248314
 H        -0.211222        -0.097615        -1.009608
 H         4.128626        -0.902648         0.193914
 H         2.413925         0.189649         2.101938
 H         2.470775         2.528210         1.968238
 H         4.197148         2.250387         1.488965
 H         2.255817         2.175891        -2.021646
 H         3.972713         1.789980        -1.608062
 H         2.251011        -0.181041        -1.990936
