19
Iteration:  2267charge 0 multiplicity 1
 C        -0.106030         0.370647         0.019828
 C         1.388723         0.118618         0.062998
 O         1.824265        -1.332131         0.066975
 C         3.121148        -0.469437         0.024541
 C         2.554000         0.518566         1.053996
 C         2.921109         1.956217         1.156132
 O         2.835568         2.674715        -0.102319
 C         3.123681         1.799714        -1.165937
 C         2.478827         0.351728        -1.090760
 H        -0.476230        -0.101535         0.840802
 H        -0.522344         1.371194        -0.319587
 H        -0.377403        -0.247467        -0.812361
 H         4.014768        -1.084408         0.097427
 H         2.544378         0.040280         2.024727
 H         2.327420         2.525936         1.872355
 H         4.079006         1.961046         1.359036
 H         2.751969         2.392473        -1.962118
 H         4.242468         1.542382        -1.228644
 H         2.325719        -0.078346        -2.127382
