19
Iteration:  3706charge 0 multiplicity 1
 C         0.014269         0.421845        -0.013415
 C         1.421545         0.148060         0.034876
 O         1.885568        -1.329164         0.161074
 C         3.125270        -0.442731         0.080048
 C         2.456516         0.533685         1.112161
 C         3.033912         1.914750         1.153934
 O         2.803052         2.596442        -0.196174
 C         3.006662         1.773909        -1.306667
 C         2.436940         0.407258        -1.019486
 H        -0.458587         0.145218         1.029664
 H        -0.181028         1.442866        -0.287920
 H        -0.621444        -0.332635        -0.710490
 H         3.976609        -1.241525        -0.110148
 H         2.236211         0.083125         2.093284
 H         2.394152         2.449489         1.821986
 H         3.871441         2.083152         1.729629
 H         2.594257         2.257853        -2.239320
 H         4.068202         1.646226        -1.491114
 H         2.410290        -0.336222        -1.864641
