19
Iteration:  1694
 C        -0.070589         0.441450        -0.090276
 C         1.453390         0.165329         0.010408
 O         1.830224        -1.304965         0.068493
 C         3.080166        -0.514474         0.105300
 C         2.529512         0.527865         1.124569
 C         3.119368         1.901341         1.104172
 O         2.706944         2.577879        -0.016930
 C         2.957545         1.826233        -1.213563
 C         2.592386         0.350604        -1.080286
 H        -0.644414        -0.188035         0.674309
 H        -0.495326         1.467433         0.217940
 H        -0.436692         0.165400        -1.110026
 H         4.126100        -0.994908         0.087512
 H         2.341295         0.236761         2.157792
 H         2.738630         2.372628         1.950320
 H         4.219537         1.760121         1.171714
 H         2.361614         2.270281        -1.979195
 H         3.932416         1.981498        -1.605684
 H         2.565013        -0.266874        -2.002675
