19
Iteration:  3123
 C        -0.087461         0.312287        -0.024454
 C         1.406397         0.128595         0.054640
 O         1.915299        -1.277944         0.126852
 C         3.078097        -0.443332         0.073444
 C         2.485845         0.568376         1.182565
 C         3.052783         1.924775         1.092327
 O         2.839494         2.611338        -0.147091
 C         2.985161         1.752224        -1.239546
 C         2.451970         0.367014        -1.102619
 H        -0.692895         0.166661         0.901486
 H        -0.117643         1.533497        -0.276001
 H        -0.524397        -0.193342        -0.909742
 H         4.041430        -0.988394         0.228164
 H         2.558662         0.045795         2.170666
 H         2.459425         2.533552         1.916780
 H         4.193408         1.902989         1.421947
 H         2.530655         2.236640        -2.104714
 H         4.095114         1.773265        -1.519231
 H         2.153543        -0.112892        -2.033625
