19
Iteration:   442
 C        -0.082467         0.375675        -0.085594
 C         1.426069         0.209972         0.023001
 O         1.798599        -1.248452         0.174973
 C         3.106810        -0.588141         0.004811
 C         2.644516         0.434192         1.063228
 C         3.068869         1.907580         1.129807
 O         2.763058         2.583629        -0.040084
 C         3.002889         1.850559        -1.208520
 C         2.507900         0.435923        -1.050050
 H        -0.606434        -0.215937         0.714002
 H        -0.331354         1.476989        -0.074386
 H        -0.244507        -0.107799        -1.036956
 H         3.796776        -1.382432        -0.137077
 H         2.370448         0.118498         2.068770
 H         2.468500         2.342502         1.899901
 H         4.112431         2.105801         1.303982
 H         2.343632         2.316846        -2.010478
 H         4.099968         1.926488        -1.496062
 H         2.157364         0.099990        -1.995671
