19
Iteration:   905
 C        -0.163763         0.534910         0.101076
 C         1.384770         0.137083         0.005995
 O         1.919221        -1.355782         0.070786
 C         3.135085        -0.484976        -0.045317
 C         2.545849         0.450682         1.104958
 C         2.940197         1.896340         1.203779
 O         2.727580         2.601208        -0.100850
 C         3.125744         1.793153        -1.241587
 C         2.533903         0.340832        -1.136757
 H        -0.501866         0.387805         1.191002
 H        -0.170581         1.537602        -0.064156
 H        -0.818763         0.039192        -0.634905
 H         4.029440        -0.898449         0.062357
 H         2.460226        -0.051731         2.031692
 H         2.223553         2.415370         1.828220
 H         3.951806         2.213829         1.468919
 H         2.901512         2.278251        -2.193719
 H         4.173716         1.799994        -1.116407
 H         2.625376        -0.119894        -2.094499
