19
Iteration:  4727
 C        -0.059100         0.411919         0.146513
 C         1.435256         0.238295        -0.036895
 O         1.833862        -1.303408         0.079878
 C         3.133109        -0.534188         0.129503
 C         2.463744         0.533617         1.081483
 C         2.899489         1.959153         1.083205
 O         2.788980         2.596421        -0.146274
 C         3.108214         1.701102        -1.313847
 C         2.620767         0.373985        -1.043569
 H        -0.568838        -0.006239         1.014520
 H        -0.554066         1.494291         0.306567
 H        -0.533467        -0.128852        -0.671525
 H         4.150353        -1.062555         0.100158
 H         2.321485         0.149790         2.081491
 H         2.293793         2.469323         1.727438
 H         3.841594         2.087507         1.455124
 H         2.606232         2.153879        -2.166264
 H         4.139173         1.778733        -1.570587
 H         2.370518        -0.278252        -1.868113
