19
Iteration:  3819charge 0 multiplicity 1
 C         0.043707         0.408723         0.008827
 C         1.499375         0.179227         0.046332
 O         1.844582        -1.257568         0.191200
 C         3.057105        -0.559841         0.082043
 C         2.542952         0.470718         1.121853
 C         2.923748         1.947360         1.086341
 O         2.723802         2.642784        -0.209853
 C         3.084424         1.749132        -1.187668
 C         2.442228         0.341986        -1.106295
 H        -0.507980        -0.150672         0.738767
 H         0.036412         1.586126         0.121515
 H        -0.382955         0.168545        -0.933408
 H         4.037233        -1.131099         0.061224
 H         2.229732        -0.014802         2.005393
 H         2.430951         2.565136         1.841972
 H         4.099892         2.072304         1.275740
 H         2.686313         2.148646        -2.149605
 H         4.120937         1.839657        -1.329513
 H         2.275273        -0.143164        -2.041175
