19
Iteration:    42
 C        -0.012131         0.371524         0.017927
 C         1.373250         0.119601         0.016801
 O         1.858667        -1.317282         0.105700
 C         3.074577        -0.570549        -0.023619
 C         2.510395         0.457061         1.102112
 C         3.004703         1.916272         1.151190
 O         2.811180         2.641776        -0.089862
 C         3.078885         1.846369        -1.203872
 C         2.450136         0.450233        -1.076793
 H        -0.524690         0.350724         1.011221
 H        -0.170872         1.502922        -0.249528
 H        -0.553296        -0.192065        -0.631679
 H         3.919191        -1.162980        -0.070199
 H         2.415672        -0.051532         1.985316
 H         2.365479         2.546265         1.743076
 H         4.057367         2.032121         1.430290
 H         2.839348         2.444582        -2.039574
 H         4.199460         1.768481        -1.349706
 H         2.222719         0.032038        -1.979227
