19
Iteration:  1384charge 0 multiplicity 1
 C         0.000731         0.396573        -0.024368
 C         1.445938         0.133212        -0.023865
 O         1.814738        -1.297741         0.013180
 C         3.147370        -0.497289         0.074209
 C         2.457128         0.511827         1.134453
 C         3.032361         1.937050         1.157544
 O         2.746273         2.599417        -0.082186
 C         3.054038         1.819067        -1.232123
 C         2.469650         0.385587        -1.035041
 H        -0.285648         0.154945         1.092603
 H        -0.059392         1.485091        -0.122172
 H        -0.607020        -0.284405        -0.737238
 H         4.080310        -1.097259        -0.061673
 H         2.234987        -0.031725         2.097532
 H         2.632507         2.464357         1.970886
 H         4.097826         1.961341         1.326161
 H         2.652243         2.367973        -2.131537
 H         4.148848         1.596463        -1.088726
 H         2.085221        -0.122207        -1.948211
