19
Iteration:  3432
 C        -0.152540         0.559465        -0.074333
 C         1.396550         0.145827         0.075508
 O         1.914090        -1.406057         0.204846
 C         3.143112        -0.488372         0.095315
 C         2.611086         0.472384         1.174049
 C         3.019794         1.993254         1.093821
 O         2.704401         2.517057        -0.136999
 C         3.013191         1.813442        -1.312236
 C         2.524127         0.341806        -1.099217
 H        -0.816653        -0.025208         0.607675
 H        -0.356262         1.589713         0.141468
 H        -0.479787         0.371048        -1.163680
 H         4.208477        -1.033769         0.030361
 H         2.438152         0.234394         2.199566
 H         2.541562         2.650645         1.859183
 H         4.132981         1.939931         1.286771
 H         2.455864         2.489696        -1.998963
 H         4.087382         1.899488        -1.622798
 H         2.474131        -0.403312        -1.947661
