19
Iteration:  1026
 C        -0.153912         0.406088        -0.001808
 C         1.422976         0.154073        -0.070187
 O         1.815010        -1.258045         0.000338
 C         3.119575        -0.545343         0.108006
 C         2.527419         0.482948         1.136719
 C         3.043967         1.898670         1.198354
 O         2.788932         2.617395        -0.074770
 C         2.999210         1.796751        -1.248016
 C         2.647560         0.374423        -1.039191
 H        -0.558708        -0.085373         0.990641
 H        -0.429986         1.420281         0.087096
 H        -0.749453        -0.199547        -0.813585
 H         4.096576        -0.882901         0.274196
 H         2.233968         0.081791         2.116627
 H         2.605362         2.587712         1.951000
 H         4.121137         1.892266         1.193157
 H         2.514538         2.487413        -1.957012
 H         4.085369         1.920792        -1.780423
 H         2.384614        -0.232291        -1.971996
