19
Iteration:  4291charge 0 multiplicity 1
 C        -0.079913         0.483292        -0.033909
 C         1.400559         0.128823         0.024306
 O         1.862781        -1.294052         0.124144
 C         3.190900        -0.464293         0.119846
 C         2.445087         0.555977         1.141824
 C         3.099441         1.909546         1.096631
 O         2.722303         2.555147        -0.109217
 C         2.936047         1.782924        -1.269259
 C         2.585610         0.308787        -1.096712
 H        -0.491262         0.089253         0.897591
 H        -0.228168         1.533201        -0.280558
 H        -0.543069        -0.003779        -0.891881
 H         4.144405        -1.051224         0.307488
 H         2.233773         0.263419         2.144238
 H         2.808476         2.636041         1.972823
 H         4.177825         1.775230         1.395382
 H         2.259107         2.218874        -2.078490
 H         3.984099         1.818112        -1.636475
 H         2.603898        -0.367154        -1.953522
