19
Iteration:   468
 C        -0.055649         0.423693        -0.109152
 C         1.404993         0.128035         0.050349
 O         1.793314        -1.288052         0.114568
 C         3.168952        -0.403111         0.040627
 C         2.573093         0.471905         1.144527
 C         3.161660         1.899279         1.230748
 O         2.738533         2.615754        -0.054098
 C         2.938640         1.770891        -1.260564
 C         2.454319         0.368334        -1.130522
 H        -0.613445        -0.273489         0.488434
 H        -0.279605         1.559628         0.168582
 H        -0.124244         0.145619        -1.160329
 H         4.030550        -1.120678         0.052025
 H         2.414008        -0.015675         2.167816
 H         2.657141         2.486095         2.073013
 H         4.304616         1.820183         1.191335
 H         2.464406         2.249540        -2.135411
 H         4.025364         1.713822        -1.399327
 H         2.101732        -0.161844        -2.093292
