19
Iteration:  3617
 C        -0.128521         0.479179        -0.075629
 C         1.331161         0.085685         0.069589
 O         1.907895        -1.311772         0.192881
 C         3.157196        -0.488914         0.074557
 C         2.589650         0.443923         1.133431
 C         3.062053         2.030375         1.102562
 O         2.701826         2.587439        -0.168670
 C         3.041056         1.777967        -1.265559
 C         2.506433         0.340932        -1.048431
 H        -0.805006        -0.042385         0.695742
 H        -0.182724         1.583907         0.258688
 H        -0.576882         0.325983        -1.154034
 H         3.997335        -1.342483         0.102742
 H         2.603602         0.023189         2.161912
 H         2.547166         2.696656         1.784296
 H         4.205663         2.085649         1.315875
 H         2.521304         2.291099        -2.083837
 H         4.186433         1.733303        -1.516375
 H         2.283990        -0.246365        -1.928646
