19
Iteration:  2468
 C        -0.015241         0.370019         0.054024
 C         1.406262         0.114884         0.062348
 O         1.890619        -1.307917         0.137811
 C         3.057619        -0.415283        -0.002206
 C         2.519058         0.431396         1.066910
 C         2.842761         1.912644         1.147051
 O         2.885361         2.579157        -0.074074
 C         3.120749         1.813466        -1.275836
 C         2.445568         0.462727        -1.137923
 H        -0.730656         0.117699         0.901344
 H        -0.104800         1.435056         0.001327
 H        -0.220754        -0.119744        -0.926296
 H         4.120044        -1.003095         0.106048
 H         2.373582        -0.052360         2.061200
 H         2.052094         2.355072         1.741331
 H         3.822443         2.180844         1.612135
 H         2.653015         2.299550        -2.067319
 H         4.176720         1.861456        -1.547114
 H         2.171807        -0.142374        -1.966292
