19
Iteration:  3466charge 0 multiplicity 1
 C         0.091939         0.472010         0.041968
 C         1.507141         0.126913        -0.032536
 O         1.790839        -1.338685         0.123796
 C         3.137460        -0.435387         0.152505
 C         2.450654         0.522221         1.127051
 C         2.929585         1.921222         1.041182
 O         2.750259         2.621167        -0.145808
 C         2.992695         1.763182        -1.249984
 C         2.515606         0.337093        -1.041519
 H        -0.275709        -0.179155         0.904074
 H        -0.029405         1.462723         0.285477
 H        -0.568626         0.201568        -0.894719
 H         4.088143        -1.042874         0.036403
 H         2.085027         0.148403         2.055608
 H         2.644712         2.680083         1.856213
 H         4.105436         1.859105         1.126425
 H         2.425138         2.188943        -2.140882
 H         4.066319         1.639957        -1.516920
 H         2.542013        -0.412452        -1.915328
