19
Iteration:    44charge 0 multiplicity 1
 C        -0.015243         0.389258         0.033193
 C         1.375988         0.114153         0.032226
 O         1.854268        -1.349435         0.096665
 C         3.075176        -0.565318        -0.016688
 C         2.488603         0.452427         1.076526
 C         3.011803         1.918143         1.136797
 O         2.816737         2.663668        -0.093019
 C         3.078430         1.852290        -1.188622
 C         2.456237         0.445514        -1.079560
 H        -0.532135         0.329755         0.982325
 H        -0.156107         1.431434        -0.272212
 H        -0.542165        -0.162282        -0.633355
 H         3.992223        -1.143653         0.009099
 H         2.423125        -0.005877         2.012482
 H         2.401583         2.555179         1.763868
 H         4.050307         2.006357         1.430578
 H         2.808219         2.453049        -2.046802
 H         4.162507         1.780759        -1.301605
 H         2.249552        -0.001438        -2.021515
