19
Iteration:  2272
 C        -0.047129         0.362185         0.046287
 C         1.395402         0.117228         0.041923
 O         1.806693        -1.312012         0.031881
 C         3.130978        -0.461596         0.042073
 C         2.528284         0.505215         1.060530
 C         2.938199         1.989485         1.155400
 O         2.837414         2.687836        -0.085504
 C         3.119827         1.784799        -1.164050
 C         2.461570         0.292342        -1.140462
 H        -0.592252        -0.112939         0.993489
 H        -0.344676         1.326975        -0.282991
 H        -0.481503        -0.270997        -0.811587
 H         4.108852        -1.046956         0.276254
 H         2.382103         0.073071         2.089812
 H         2.357625         2.506886         1.959440
 H         3.972123         2.041164         1.514258
 H         2.800616         2.418127        -2.061329
 H         4.176748         1.610961        -1.298695
 H         2.235507        -0.080365        -2.116686
