19
Iteration:  3859
 C        -0.004558         0.535819         0.097729
 C         1.360027         0.142020        -0.011306
 O         1.944851        -1.310799         0.127918
 C         3.109558        -0.492310         0.056950
 C         2.459575         0.482190         1.139271
 C         2.919708         1.962866         1.133353
 O         2.719597         2.567212        -0.190126
 C         3.058796         1.713459        -1.263916
 C         2.604208         0.342690        -1.078214
 H        -0.618907         0.309633         1.013873
 H        -0.087382         1.601118         0.007535
 H        -0.638402         0.141215        -0.808306
 H         3.997177        -1.145107         0.254686
 H         2.406975         0.028853         2.174630
 H         2.269784         2.603015         1.722414
 H         3.935179         1.996288         1.334049
 H         2.664187         2.280855        -2.150467
 H         4.243442         1.617009        -1.509923
 H         2.356352        -0.228258        -2.023534
