19
Iteration:   844charge 0 multiplicity 1
 C        -0.167761         0.373026        -0.035344
 C         1.336862         0.157685         0.010908
 O         1.870832        -1.307118         0.086009
 C         3.132333        -0.517181         0.070652
 C         2.492382         0.518384         1.089087
 C         3.121736         1.872512         1.073524
 O         2.804852         2.608807        -0.055634
 C         2.999889         1.856355        -1.199483
 C         2.588060         0.424083        -1.076718
 H        -0.615532        -0.168162         0.791108
 H        -0.367353         1.478492         0.164261
 H        -0.729345        -0.034880        -0.944127
 H         4.112585        -1.015680         0.426360
 H         2.357575         0.110694         2.133022
 H         2.543417         2.378908         1.880952
 H         4.178012         1.742799         1.406733
 H         2.325900         2.263526        -2.032785
 H         4.047214         1.944144        -1.583360
 H         2.543005        -0.191609        -2.013761
