19
Iteration:   324
 C        -0.123141         0.470901        -0.044336
 C         1.406062         0.109514         0.081980
 O         1.900102        -1.312124         0.131950
 C         3.134435        -0.432032         0.000630
 C         2.472522         0.432968         1.090921
 C         3.066423         1.900437         1.097031
 O         2.756792         2.528701        -0.060983
 C         3.036742         1.851733        -1.226969
 C         2.468692         0.425648        -1.067541
 H        -0.767342        -0.010486         0.701636
 H        -0.097300         1.605484         0.102695
 H        -0.413484         0.200760        -0.944943
 H         4.052654        -0.941972        -0.034248
 H         2.417348        -0.129660         2.023429
 H         2.808262         2.551085         1.884272
 H         4.145628         1.665721         1.263805
 H         2.606602         2.362536        -2.080692
 H         4.150183         1.694386        -1.307747
 H         2.288874        -0.024039        -2.013293
