19
Iteration:   187charge 0 multiplicity 1
 C        -0.040286         0.440020         0.133514
 C         1.413519         0.167405        -0.054360
 O         1.765947        -1.289953        -0.037771
 C         3.094619        -0.551601         0.106160
 C         2.516124         0.457186         1.157627
 C         3.012757         1.939930         1.258188
 O         2.748420         2.674686        -0.097672
 C         3.067484         1.765094        -1.303363
 C         2.670705         0.350238        -1.154914
 H        -0.444375         0.133422         1.079692
 H        -0.437841         1.464540         0.032834
 H        -0.638275        -0.297599        -0.612220
 H         3.988982        -1.309905         0.243306
 H         2.103708        -0.026562         2.068190
 H         2.510948         2.647358         2.041705
 H         4.120666         2.038035         1.399704
 H         2.298417         2.188290        -2.085619
 H         4.109254         1.999320        -1.680179
 H         2.587002        -0.257551        -2.132028
