19
Iteration:  1359charge 0 multiplicity 1
 C        -0.123302         0.459366        -0.015334
 C         1.408812         0.123089         0.010836
 O         1.843726        -1.301673         0.065652
 C         3.156771        -0.565746         0.103761
 C         2.464672         0.489992         1.079566
 C         3.069336         1.872228         1.116036
 O         2.765604         2.623788        -0.069701
 C         2.947822         1.903469        -1.262219
 C         2.695406         0.346190        -1.044946
 H        -0.525943         0.044217         0.815475
 H        -0.225384         1.588493         0.077370
 H        -0.557885         0.020447        -0.810713
 H         3.843809        -1.253842         0.247858
 H         2.079735         0.032897         1.989598
 H         2.630122         2.372953         1.978964
 H         4.114629         1.887187         1.318410
 H         2.142625         2.201987        -1.900540
 H         4.024758         2.007666        -1.565780
 H         2.539839        -0.047438        -2.032102
