19
Iteration:   627
 C        -0.068551         0.456273        -0.072496
 C         1.403091         0.093869         0.038201
 O         1.827840        -1.309337         0.067595
 C         3.122842        -0.501331         0.104413
 C         2.505702         0.468066         1.113613
 C         3.083735         1.899972         1.145084
 O         2.796330         2.637352        -0.028884
 C         2.922246         1.813720        -1.324743
 C         2.640515         0.384217        -1.057583
 H        -0.495394        -0.153622         0.733031
 H        -0.390083         1.453567         0.147675
 H        -0.634700         0.073022        -0.904268
 H         4.103094        -1.047340         0.216592
 H         2.039039         0.199025         2.066963
 H         2.677163         2.518999         1.950303
 H         4.184309         1.783195         1.286804
 H         2.167829         2.199044        -1.970607
 H         3.909070         2.076317        -1.649036
 H         2.388814        -0.176823        -1.946583
