19
Iteration:  4243charge 0 multiplicity 1
 C         0.025452         0.499047        -0.027867
 C         1.435568         0.146547         0.066583
 O         1.826017        -1.352947         0.153933
 C         3.098834        -0.526598         0.032012
 C         2.592437         0.475837         1.092625
 C         2.985153         2.060309         1.098125
 O         2.687020         2.615766        -0.126222
 C         3.026404         1.735221        -1.212852
 C         2.515274         0.302179        -1.052562
 H        -0.593173         0.067208         0.791718
 H         0.028420         1.651408        -0.214973
 H        -0.364851         0.124817        -1.010719
 H         4.078769        -1.112046        -0.042091
 H         2.376028        -0.010270         2.086097
 H         2.442951         2.531991         2.009064
 H         3.993910         2.254259         1.366788
 H         2.548327         2.060707        -2.173842
 H         4.185243         1.754948        -1.383344
 H         2.188902        -0.289284        -1.913960
