19
Iteration:   841
 C        -0.168917         0.378967        -0.036874
 C         1.367688         0.164128         0.005475
 O         1.880157        -1.298362         0.087098
 C         3.130968        -0.490012         0.099435
 C         2.468707         0.497566         1.086949
 C         3.122459         1.850332         1.103403
 O         2.805106         2.606986        -0.073622
 C         2.992549         1.862727        -1.192821
 C         2.581030         0.410754        -1.094201
 H        -0.624385        -0.160780         0.848634
 H        -0.301331         1.337816         0.148465
 H        -0.725418         0.031174        -0.934135
 H         4.009868        -0.967110         0.320860
 H         2.328685         0.192207         2.112599
 H         2.616715         2.419013         1.863064
 H         4.149924         1.646860         1.322069
 H         2.261868         2.326458        -2.014680
 H         4.004603         1.862178        -1.636744
 H         2.630352        -0.165709        -1.995129
