19
Iteration:  4821
 C        -0.009129         0.402250        -0.069202
 C         1.438189         0.186644         0.023637
 O         1.831465        -1.271547         0.206438
 C         3.095212        -0.523845         0.168242
 C         2.473876         0.507485         1.100870
 C         3.048584         1.887303         1.029756
 O         2.765627         2.635075        -0.129686
 C         2.931850         1.776718        -1.294502
 C         2.603456         0.370607        -1.042502
 H        -0.544160         0.121876         0.897255
 H        -0.127439         1.477435        -0.087270
 H        -0.274841        -0.338961        -0.903344
 H         3.921482        -1.230394         0.249644
 H         2.329773         0.021633         2.118682
 H         2.767050         2.616519         1.914949
 H         4.093822         1.805905         1.272771
 H         2.110613         2.225339        -1.988849
 H         3.901168         1.917650        -1.730382
 H         2.529668        -0.164482        -2.056675
