19
Iteration:   166charge 0 multiplicity 1
 C        -0.031957         0.453251         0.051150
 C         1.379342         0.163227        -0.031371
 O         1.868862        -1.262952         0.031692
 C         3.114874        -0.471608         0.112793
 C         2.450384         0.499932         1.100492
 C         3.042004         1.824407         1.084174
 O         2.746108         2.509664        -0.063116
 C         3.043433         1.822799        -1.250039
 C         2.554619         0.401319        -1.026017
 H        -0.504013         0.043653         0.911474
 H        -0.210326         1.485796         0.079730
 H        -0.686052         0.080356        -0.837598
 H         4.181793        -1.005105         0.138853
 H         2.295008         0.022775         2.110997
 H         2.580843         2.604944         1.789772
 H         4.121231         1.879693         1.328794
 H         2.417736         2.436875        -2.041806
 H         4.148487         1.836539        -1.513637
 H         2.428276        -0.105462        -2.050788
