19
Iteration:  1360charge 0 multiplicity 1
 C        -0.113454         0.459366        -0.012005
 C         1.417249         0.126159         0.009116
 O         1.843469        -1.306253         0.057661
 C         3.140717        -0.558113         0.104909
 C         2.469808         0.489031         1.077434
 C         3.069223         1.877285         1.119639
 O         2.762788         2.629438        -0.068184
 C         2.951863         1.894606        -1.257251
 C         2.685218         0.339175        -1.046617
 H        -0.529541         0.024035         0.866375
 H        -0.235130         1.601648         0.067566
 H        -0.554358        -0.014372        -0.839762
 H         3.845883        -1.263549         0.272056
 H         2.073140         0.049104         2.006641
 H         2.645052         2.378858         1.951313
 H         4.109325         1.897714         1.321468
 H         2.136776         2.212762        -1.895228
 H         4.043443         1.995309        -1.571155
 H         2.567300        -0.031035        -2.047653
