19
Iteration:  3141charge 0 multiplicity 1
 C        -0.050076         0.407554         0.027810
 C         1.414278         0.121762         0.072629
 O         1.847633        -1.299533         0.132664
 C         3.143615        -0.472994         0.103686
 C         2.461199         0.469385         1.101978
 C         2.953806         1.895039         1.107369
 O         2.839933         2.622663        -0.136634
 C         3.012666         1.811913        -1.363454
 C         2.548611         0.427096        -1.015735
 H        -0.491420         0.163976         0.998423
 H        -0.299924         1.308458        -0.319772
 H        -0.427845        -0.400397        -0.622411
 H         4.179808        -0.981413         0.027645
 H         2.082099         0.060927         2.049679
 H         2.662916         2.627943         1.764907
 H         3.982889         1.897646         1.375843
 H         2.366621         2.323211        -2.071269
 H         3.995343         1.775090        -1.821847
 H         2.387580        -0.308346        -1.819008
