19
Iteration:  4391charge 0 multiplicity 1
 C        -0.131022         0.423865         0.109050
 C         1.398362         0.058943         0.028778
 O         1.813239        -1.311765         0.112291
 C         3.097832        -0.469730         0.121497
 C         2.524179         0.471876         1.123724
 C         2.956296         1.973759         1.072695
 O         2.828762         2.656043        -0.179153
 C         3.054574         1.790314        -1.304410
 C         2.651570         0.373083        -1.097678
 H        -0.461645         0.050540         1.141022
 H        -0.272475         1.543026         0.240563
 H        -0.605576        -0.102333        -0.851847
 H         3.998039        -1.075350        -0.009788
 H         2.253334         0.094389         2.154776
 H         2.151351         2.434857         1.806341
 H         3.969540         2.038271         1.479413
 H         2.536153         2.291301        -2.179175
 H         4.189977         1.492025        -1.397774
 H         2.596009        -0.186734        -2.053849
