19
Iteration:  3798charge 0 multiplicity 1
 C        -0.117748         0.410243        -0.001948
 C         1.418000         0.141601         0.010370
 O         1.816406        -1.344027         0.153418
 C         3.131815        -0.485967         0.085715
 C         2.502487         0.582026         1.111799
 C         3.066683         1.963722         1.101259
 O         2.711877         2.615096        -0.134759
 C         3.074865         1.802179        -1.286065
 C         2.562230         0.281359        -1.037231
 H        -0.502099        -0.199009         0.772611
 H        -0.239168         1.585104         0.055820
 H        -0.514744         0.019950        -0.878378
 H         4.000459        -1.175147         0.216175
 H         2.439776         0.175502         2.129240
 H         2.686262         2.674740         1.898895
 H         4.134185         1.998568         1.305455
 H         2.589737         2.247395        -2.169201
 H         4.086813         1.729701        -1.539045
 H         2.447337        -0.185284        -1.988170
