19
Iteration:  1513charge 0 multiplicity 1
 C        -0.017479         0.390396        -0.180325
 C         1.438530         0.116586         0.082512
 O         1.831868        -1.298497         0.111112
 C         3.088064        -0.575596         0.010054
 C         2.588631         0.453882         1.151346
 C         3.128036         1.920611         1.149265
 O         2.726229         2.656539        -0.060875
 C         2.924401         1.832560        -1.203960
 C         2.457011         0.394541        -1.029653
 H        -0.672703        -0.151347         0.482688
 H        -0.084609         1.552877         0.051463
 H        -0.322620         0.324606        -1.200009
 H         3.973466        -1.157411         0.084685
 H         2.521118         0.143750         2.221130
 H         2.585401         2.531540         1.967827
 H         4.235409         2.051495         1.172453
 H         2.470172         2.355820        -2.151715
 H         4.039289         1.831335        -1.249325
 H         2.281432        -0.059101        -2.021535
