19
Iteration:  1674
 C        -0.007948         0.315148        -0.050042
 C         1.464077         0.208668        -0.066003
 O         1.837250        -1.271250         0.005420
 C         3.086307        -0.560650         0.192528
 C         2.411195         0.476762         1.156589
 C         3.188720         1.915738         1.128556
 O         2.740337         2.627205        -0.068834
 C         2.951274         1.834864        -1.233965
 C         2.500600         0.434433        -1.024867
 H        -0.472705        -0.230076         0.694045
 H        -0.271412         1.453913         0.155641
 H        -0.478005         0.203248        -0.958026
 H         4.118855        -1.098963         0.428477
 H         2.120063        -0.027464         2.049379
 H         2.831929         2.525739         1.945210
 H         4.294494         1.604045         0.977327
 H         2.430315         2.159038        -2.114379
 H         4.006223         1.955118        -1.562078
 H         2.291786        -0.183979        -1.926211
