19
Iteration:   233charge 0 multiplicity 1
 C        -0.118047         0.492015        -0.012301
 C         1.353612         0.112479         0.067289
 O         1.980720        -1.270965         0.100930
 C         3.097851        -0.448799        -0.105216
 C         2.474484         0.451429         1.109816
 C         2.991744         1.953323         1.246937
 O         2.819535         2.584625        -0.073284
 C         3.078065         1.723729        -1.236843
 C         2.413955         0.370364        -1.081262
 H        -0.729783         0.498802         0.890008
 H         0.007365         1.498958        -0.223073
 H        -0.688047        -0.143751        -0.862029
 H         4.185607        -0.904098        -0.335446
 H         2.589325        -0.231023         2.013397
 H         2.353273         2.499948         2.055691
 H         4.064300         1.898239         1.583524
 H         2.786138         2.352575        -2.207190
 H         4.197682         1.533309        -1.320742
 H         2.176542        -0.323422        -1.987289
