19
Iteration:  1875charge 0 multiplicity 1
 C        -0.046659         0.459926        -0.073558
 C         1.384678         0.145026        -0.029115
 O         1.909414        -1.303742         0.062722
 C         3.113765        -0.506095         0.176061
 C         2.462320         0.429080         1.168568
 C         3.048471         1.887278         1.117980
 O         2.817680         2.617426        -0.074470
 C         2.890209         1.844610        -1.277212
 C         2.607879         0.334869        -1.075698
 H        -0.579060        -0.083118         0.738364
 H        -0.197590         1.646710         0.153459
 H        -0.679660         0.224981        -0.980730
 H         4.041723        -1.009942         0.212099
 H         2.165455         0.194196         2.234962
 H         2.722235         2.617082         1.962443
 H         4.057200         1.740427         1.379204
 H         2.027651         2.270521        -1.926099
 H         3.920095         1.992570        -1.771210
 H         2.611838        -0.201144        -1.992049
