19
Iteration:  1577charge 0 multiplicity 1
 C        -0.077449         0.470486         0.135149
 C         1.369817         0.122287         0.008807
 O         1.881983        -1.367323        -0.004212
 C         3.134131        -0.530061         0.056013
 C         2.427918         0.432136         1.070091
 C         2.947979         1.907621         1.146471
 O         2.790987         2.668204        -0.118313
 C         3.056756         1.829960        -1.191969
 C         2.621020         0.372584        -1.089162
 H        -0.356713         0.329252         1.154789
 H        -0.225456         1.646352        -0.189536
 H        -0.659755        -0.088830        -0.542210
 H         4.202779        -0.857478         0.201325
 H         2.278202        -0.074111         2.018276
 H         2.162778         2.482326         1.857220
 H         3.940174         1.900787         1.511302
 H         2.743834         2.382139        -2.123800
 H         4.069952         1.742209        -1.515894
 H         2.560764         0.009895        -2.132323
