19
Iteration:  2281
 C        -0.012580         0.313198         0.061714
 C         1.442831         0.106645        -0.028977
 O         1.816481        -1.280569         0.021385
 C         3.101936        -0.500300         0.056139
 C         2.439843         0.500121         1.073276
 C         2.972531         2.009566         1.180547
 O         2.828843         2.670782        -0.058441
 C         3.093397         1.759393        -1.236389
 C         2.478958         0.351638        -1.132622
 H        -0.478386         0.288544         1.107195
 H        -0.057383         1.386580         0.042217
 H        -0.593302        -0.264977        -0.702340
 H         4.206065        -0.973456         0.174008
 H         2.124629         0.080637         2.059484
 H         2.275449         2.473334         1.780392
 H         4.006873         2.129098         1.737282
 H         2.784694         2.206844        -2.128077
 H         4.199765         1.748672        -1.293646
 H         2.249148        -0.249117        -1.967072
