19
Iteration:  1664
 C        -0.079208         0.340982        -0.059049
 C         1.422267         0.110671         0.023672
 O         1.831280        -1.270542         0.035275
 C         3.082685        -0.501417         0.159459
 C         2.438627         0.466243         1.191394
 C         3.070737         1.842998         1.076129
 O         2.770105         2.665123        -0.063026
 C         3.006093         1.868510        -1.269446
 C         2.582979         0.412685        -1.076067
 H        -0.522624        -0.179753         0.712939
 H        -0.267072         1.455865         0.256148
 H        -0.513546         0.048692        -0.945223
 H         4.099002        -1.042664         0.055646
 H         2.190044         0.203412         2.200132
 H         3.114836         2.485453         1.983117
 H         4.239787         1.658177         1.125942
 H         2.366577         2.419893        -1.989295
 H         4.125889         1.871045        -1.579568
 H         2.495555        -0.168183        -2.020863
