19
Iteration:   755
 C         0.029313         0.453689         0.013327
 C         1.442254         0.146680         0.044773
 O         1.886929        -1.271557         0.086220
 C         3.138455        -0.487548        -0.050344
 C         2.464663         0.434880         1.111285
 C         2.970782         1.900658         1.169286
 O         2.734281         2.617369        -0.066384
 C         3.049882         1.723787        -1.216967
 C         2.448412         0.417861        -1.103107
 H        -0.421259         0.265926         1.072085
 H        -0.198330         1.435923        -0.225711
 H        -0.626302        -0.156803        -0.810245
 H         4.010117        -1.063601        -0.112671
 H         2.307991        -0.044058         2.029727
 H         2.444886         2.549890         1.853441
 H         4.028665         2.053901         1.592763
 H         2.746366         2.408749        -2.016699
 H         4.112401         1.593688        -1.374440
 H         2.375895        -0.105452        -2.037121
