19
Iteration:   536
 C         0.051729         0.462791         0.093717
 C         1.510428         0.165194         0.023846
 O         1.812666        -1.296145         0.050941
 C         3.046545        -0.463720        -0.007779
 C         2.556045         0.464016         1.071559
 C         2.893748         1.936288         1.176775
 O         2.762369         2.576069        -0.068737
 C         3.075038         1.756046        -1.236771
 C         2.515248         0.368124        -1.110084
 H        -0.491597         0.216438         1.037365
 H        -0.298699         1.451442        -0.098594
 H        -0.411583        -0.215396        -0.796314
 H         3.925257        -1.093189         0.144525
 H         2.342508        -0.050868         1.972455
 H         2.157278         2.462583         1.790886
 H         3.982740         2.134754         1.414175
 H         2.614610         2.356593        -1.924999
 H         4.159946         1.666225        -1.401811
 H         2.281494        -0.121059        -2.081707
