19
Iteration:  1250
 C        -0.124082         0.417708         0.149247
 C         1.380289         0.124539        -0.072131
 O         1.834876        -1.352078        -0.090490
 C         3.169020        -0.470250         0.106250
 C         2.457527         0.511841         1.094810
 C         3.008508         1.931644         1.155865
 O         2.757185         2.595865        -0.078767
 C         3.111249         1.775528        -1.212596
 C         2.549500         0.374620        -1.061877
 H        -0.364982         0.298687         1.176450
 H        -0.261651         1.649364        -0.249890
 H        -0.797837        -0.071886        -0.506353
 H         4.167267        -0.847703         0.236795
 H         2.238818         0.095435         2.097421
 H         2.423360         2.505126         1.859333
 H         4.154506         2.072221         1.451062
 H         2.761488         2.336530        -2.082696
 H         4.170111         1.743171        -1.296812
 H         2.653747        -0.124461        -1.992364
