19
Iteration:   788charge 0 multiplicity 1
 C        -0.156613         0.467358        -0.099697
 C         1.427429         0.105246         0.037960
 O         1.860681        -1.292776         0.133830
 C         3.146506        -0.547465        -0.022574
 C         2.595340         0.351985         1.139326
 C         3.034176         1.956658         1.178472
 O         2.821381         2.702136        -0.038171
 C         2.957825         1.818613        -1.291117
 C         2.523654         0.385883        -1.028242
 H        -0.703916         0.017382         0.791147
 H        -0.271920         1.485152        -0.148168
 H        -0.541370        -0.029171        -1.101070
 H         4.015035        -1.150194        -0.016010
 H         2.487689        -0.020161         2.112913
 H         2.318200         2.468186         1.794482
 H         4.071982         1.938113         1.646451
 H         2.223370         2.170055        -2.063409
 H         3.975214         1.837627        -1.648177
 H         2.424262        -0.171153        -1.955612
