19
Iteration:   904
 C        -0.163334         0.523205         0.098684
 C         1.377403         0.145103         0.011271
 O         1.917719        -1.357827         0.074241
 C         3.138726        -0.484109        -0.050474
 C         2.555649         0.455504         1.102653
 C         2.935591         1.893139         1.207077
 O         2.724882         2.601839        -0.104773
 C         3.137772         1.786458        -1.243218
 C         2.516390         0.347511        -1.138634
 H        -0.503439         0.383361         1.188881
 H        -0.182083         1.586464        -0.094400
 H        -0.783816         0.059566        -0.650239
 H         4.069172        -0.919920         0.041586
 H         2.460662        -0.060927         2.022159
 H         2.250570         2.433831         1.855234
 H         3.941751         2.208293         1.494111
 H         2.901265         2.264397        -2.128679
 H         4.185291         1.824255        -1.118748
 H         2.644429        -0.140455        -2.066933
