19
Iteration:   983charge 0 multiplicity 1
 C        -0.005974         0.462392        -0.184686
 C         1.386366         0.126308         0.039958
 O         1.881605        -1.320748         0.206465
 C         3.123904        -0.438571         0.023317
 C         2.525135         0.454069         1.112527
 C         3.126380         1.917373         1.158887
 O         2.743509         2.617599        -0.018242
 C         3.016327         1.807406        -1.186811
 C         2.322281         0.367123        -1.103462
 H        -0.679104        -0.170640         0.472866
 H        -0.190384         1.475855        -0.103043
 H        -0.245478         0.018748        -1.217036
 H         3.910916        -1.113248        -0.038594
 H         2.486276        -0.134537         2.045332
 H         2.858943         2.572901         2.032214
 H         4.230570         1.747793         1.140153
 H         2.560557         2.260512        -2.153609
 H         4.103946         1.956020        -1.463571
 H         2.270175        -0.162283        -2.123285
