19
Iteration:  3554
 C        -0.121563         0.430416         0.000622
 C         1.398859         0.149056         0.054615
 O         1.859694        -1.305208         0.108392
 C         3.137338        -0.482226         0.150353
 C         2.526650         0.461471         1.059082
 C         3.052151         1.987740         1.101054
 O         2.825027         2.608221        -0.176175
 C         3.034885         1.818563        -1.270059
 C         2.493869         0.318288        -0.984544
 H        -0.505771         0.307712         1.026489
 H        -0.434283         1.271935        -0.443059
 H        -0.523015        -0.406297        -0.671815
 H         4.123612        -0.973691         0.441009
 H         2.301396        -0.155391         1.904537
 H         2.297125         2.432582         1.744457
 H         4.100217         2.047390         1.271207
 H         2.315852         2.252727        -2.036924
 H         4.028397         1.963018        -1.614198
 H         2.325839        -0.234253        -1.962201
