19
Iteration:  2822
 C        -0.168879         0.428991         0.147875
 C         1.475731         0.147625        -0.054992
 O         1.839906        -1.303660         0.063497
 C         3.145364        -0.464070         0.136974
 C         2.554325         0.470237         1.059885
 C         2.969351         1.956889         1.118479
 O         2.672400         2.545711        -0.139539
 C         3.124166         1.793046        -1.243957
 C         2.575916         0.397889        -1.060763
 H        -0.531033         0.121760         1.172877
 H        -0.449719         1.585391         0.056735
 H        -0.568254        -0.127193        -0.766923
 H         4.231248        -0.868080         0.036647
 H         2.304871        -0.040490         2.001596
 H         2.379914         2.531322         1.771270
 H         4.110412         1.903898         1.232310
 H         2.702949         2.276142        -2.096669
 H         4.281547         1.664666        -1.464640
 H         2.471723        -0.137602        -2.061769
