19
Iteration:  3784charge 0 multiplicity 1
 C        -0.123582         0.385997        -0.031654
 C         1.341394         0.122775        -0.017781
 O         1.875930        -1.266727         0.137288
 C         3.095591        -0.452723         0.187746
 C         2.534976         0.464825         1.148371
 C         3.085695         1.956999         1.056815
 O         2.764991         2.610455        -0.162091
 C         3.018370         1.732417        -1.256275
 C         2.574093         0.385548        -1.057301
 H        -0.602451         0.105365         0.953419
 H        -0.433346         1.468630         0.084750
 H        -0.676116         0.036022        -0.992747
 H         4.203020        -0.797950         0.211347
 H         2.280368         0.107472         2.103868
 H         2.644787         2.456962         1.845740
 H         4.332110         1.886594         1.133007
 H         2.336199         2.150003        -2.049464
 H         4.085301         1.807438        -1.428651
 H         2.502893        -0.318776        -1.916395
