19
Iteration:  2143charge 0 multiplicity 1
 C        -0.061746         0.476472        -0.087048
 C         1.396552         0.139725        -0.024448
 O         1.898627        -1.326476         0.176379
 C         3.088431        -0.485989         0.018072
 C         2.622452         0.461233         1.097905
 C         3.026667         1.910344         1.187033
 O         2.692916         2.547914        -0.079081
 C         3.094026         1.833751        -1.201491
 C         2.454978         0.374217        -1.092730
 H        -0.629596         0.310440         0.815918
 H        -0.174855         1.537285        -0.160188
 H        -0.432820        -0.036949        -0.939993
 H         3.981956        -0.955033        -0.046730
 H         2.245972         0.084303         2.058873
 H         2.179986         2.413119         1.799087
 H         4.113840         2.092943         1.507672
 H         2.640717         2.359012        -2.099323
 H         4.198639         1.858001        -1.270387
 H         2.202832        -0.177629        -2.077795
