19
Iteration:  3755
 C         0.005660         0.364974        -0.060842
 C         1.394189         0.166487         0.043365
 O         1.846205        -1.385860         0.182595
 C         3.046680        -0.455593         0.131625
 C         2.470389         0.497213         1.136519
 C         3.069099         1.978153         1.101860
 O         2.840993         2.630980        -0.146224
 C         2.976358         1.792669        -1.281496
 C         2.490328         0.360467        -1.106204
 H        -0.482414         0.110939         0.835293
 H        -0.288599         1.460819        -0.313960
 H        -0.324481        -0.247041        -0.805218
 H         4.124263        -0.658271         0.243946
 H         2.272041         0.074131         2.165428
 H         2.757307         2.641534         2.008867
 H         4.133856         1.887452         1.289218
 H         2.282900         2.258585        -1.996308
 H         4.086632         1.871702        -1.703941
 H         2.256523        -0.226121        -1.973814
