19
Iteration:  4640
 C         0.005557         0.452417        -0.062150
 C         1.464025         0.119430         0.061308
 O         1.779023        -1.293269         0.162314
 C         3.111147        -0.415707         0.116479
 C         2.486180         0.449082         1.160043
 C         3.093713         1.936068         1.054433
 O         2.693834         2.646007        -0.135092
 C         2.947551         1.767106        -1.254237
 C         2.600617         0.298770        -1.076600
 H        -0.499615         0.045958         0.814140
 H        -0.002839         1.554637        -0.317124
 H        -0.406225        -0.028781        -0.939677
 H         4.051428        -1.039673         0.263594
 H         2.438562         0.002014         2.155730
 H         2.713759         2.483609         1.822564
 H         4.278395         1.930945         1.251011
 H         2.195187         2.091363        -2.014915
 H         3.962557         1.900356        -1.599250
 H         2.437596        -0.316675        -1.951845
