19
Iteration:  3516
 C        -0.062179         0.397598         0.024589
 C         1.383991         0.099573         0.032464
 O         1.874885        -1.314737         0.213884
 C         3.119444        -0.455342         0.003875
 C         2.506969         0.512451         1.018474
 C         3.007947         1.978695         1.129483
 O         2.775378         2.614254        -0.152165
 C         3.128729         1.770869        -1.197255
 C         2.402533         0.350110        -1.126612
 H        -0.507236         0.301389         1.014150
 H        -0.361795         1.465423        -0.389068
 H        -0.526825        -0.381606        -0.517099
 H         4.147592        -0.824102         0.198554
 H         2.508888         0.080454         2.065458
 H         2.507429         2.658850         1.796229
 H         3.994341         2.091078         1.499759
 H         2.889048         2.275117        -2.111333
 H         4.226344         1.435513        -1.262029
 H         2.112681        -0.191089        -1.996484
