19
Iteration:  1927charge 0 multiplicity 1
 C        -0.188888         0.466470        -0.030347
 C         1.352660         0.171921        -0.036896
 O         1.903361        -1.300486         0.110468
 C         3.127448        -0.556260        -0.020368
 C         2.684602         0.458019         1.054275
 C         2.989296         1.995485         1.223405
 O         2.671513         2.587275        -0.098957
 C         3.130893         1.751714        -1.189376
 C         2.504834         0.357541        -1.052757
 H        -0.645590         0.306679         0.901518
 H        -0.294988         1.613717         0.017045
 H        -0.651246        -0.156501        -0.766218
 H         4.172484        -1.178961         0.057100
 H         2.490819         0.040130         2.022038
 H         2.285939         2.471660         1.848839
 H         4.023065         2.283916         1.712577
 H         2.858791         2.222960        -2.084113
 H         4.225926         1.711906        -1.321184
 H         2.370499        -0.094432        -2.042225
