19
Iteration:  1932
 C        -0.171773         0.469659        -0.004263
 C         1.389556         0.180468        -0.007854
 O         1.871448        -1.309986         0.118319
 C         3.144512        -0.559760         0.005364
 C         2.680415         0.469540         1.034156
 C         3.000502         1.981682         1.201738
 O         2.669880         2.573545        -0.091347
 C         3.142365         1.743402        -1.165416
 C         2.494421         0.383330        -1.103790
 H        -0.629003         0.196270         1.025422
 H        -0.335785         1.510366        -0.207619
 H        -0.480682        -0.197027        -0.876420
 H         4.014810        -1.028800        -0.064430
 H         2.343889         0.130404         2.063473
 H         2.135483         2.459208         1.835231
 H         3.946907         2.247608         1.538032
 H         2.864938         2.409922        -2.084900
 H         4.263236         1.700348        -1.202844
 H         2.301223        -0.117701        -2.068966
