19
Iteration:  2154charge 0 multiplicity 1
 C        -0.117017         0.531097        -0.095073
 C         1.452378         0.141642         0.046731
 O         1.891582        -1.328989         0.106203
 C         3.159143        -0.504321         0.032546
 C         2.564708         0.529459         1.082167
 C         3.013343         1.958438         1.216106
 O         2.716430         2.572137        -0.017108
 C         2.965412         1.744587        -1.240686
 C         2.524915         0.298818        -1.138363
 H        -0.731838         0.219193         0.726276
 H        -0.050757         1.563046        -0.292923
 H        -0.622027         0.200925        -0.968760
 H         4.050025        -0.969758        -0.058688
 H         2.481837         0.012409         2.060043
 H         2.404795         2.418201         2.137158
 H         4.098443         2.152360         1.579989
 H         2.561503         2.408266        -2.060885
 H         4.060229         1.651637        -1.418278
 H         2.509858        -0.395853        -2.059690
