19
Iteration:  1962charge 0 multiplicity 1
 C        -0.056324         0.372251         0.025996
 C         1.434082         0.104746         0.016706
 O         1.835848        -1.266214         0.055218
 C         3.101934        -0.531628         0.047577
 C         2.465296         0.453251         1.125651
 C         3.005902         1.905195         1.179200
 O         2.690894         2.662080        -0.152312
 C         3.148214         1.786774        -1.231452
 C         2.528746         0.454983        -1.035015
 H        -0.274747         0.162190         1.028652
 H        -0.058716         1.385194        -0.408044
 H        -0.645073        -0.126680        -0.720832
 H         4.117111        -1.071289         0.018878
 H         2.165226        -0.005764         2.065201
 H         2.589558         2.563980         1.995207
 H         4.138606         1.843019         1.161067
 H         2.703838         2.235843        -2.088274
 H         4.241690         1.736074        -1.221108
 H         2.300456        -0.049443        -1.914989
