19
Iteration:  1749
 C        -0.043389         0.542572         0.044159
 C         1.439268         0.108054         0.050835
 O         1.914917        -1.326523         0.010559
 C         3.141429        -0.546998        -0.016032
 C         2.506439         0.447806         1.096637
 C         2.914379         1.996172         1.241693
 O         2.747678         2.621649        -0.125884
 C         3.054000         1.726795        -1.213570
 C         2.522417         0.387688        -1.069502
 H        -0.490577         0.213208         1.068430
 H        -0.253414         1.662875        -0.255547
 H        -0.772016         0.070156        -0.655850
 H         4.166629        -1.124841         0.037420
 H         2.285914        -0.092594         2.014861
 H         2.222817         2.430760         1.894182
 H         3.920781         2.123707         1.605099
 H         2.556029         2.173303        -2.059925
 H         4.184140         1.599717        -1.467254
 H         2.413053        -0.172510        -2.042490
