19
Iteration:   908charge 0 multiplicity 1
 C        -0.157298         0.549427         0.114527
 C         1.405894         0.109626        -0.009622
 O         1.922494        -1.346002         0.059373
 C         3.107348        -0.480716        -0.020823
 C         2.516050         0.436975         1.099141
 C         2.951320         1.910666         1.183970
 O         2.732617         2.598675        -0.089833
 C         3.085723         1.811902        -1.232477
 C         2.587802         0.330509        -1.128423
 H        -0.481860         0.390774         1.131360
 H        -0.141853         1.613207        -0.017220
 H        -0.892631        -0.014352        -0.561495
 H         4.114527        -0.947104         0.124117
 H         2.439721        -0.054258         2.106262
 H         2.141426         2.375559         1.781027
 H         3.998048         2.192271         1.427405
 H         2.884424         2.318066        -2.332733
 H         4.221668         1.698930        -1.143860
 H         2.517970        -0.090513        -2.198641
