19
Iteration:   928charge 0 multiplicity 1
 C         0.063989         0.507801         0.139402
 C         1.440107         0.132114        -0.038370
 O         1.850325        -1.330024        -0.008093
 C         3.160620        -0.543601         0.095245
 C         2.416887         0.481653         1.050010
 C         2.889863         1.874622         1.138559
 O         2.737020         2.615053        -0.098943
 C         3.093871         1.815412        -1.248802
 C         2.518249         0.370319        -1.039062
 H        -0.244246         0.374950         1.211304
 H         0.042937         1.499645        -0.044941
 H        -0.614593        -0.021697        -0.587218
 H         4.021364        -1.086068         0.229872
 H         2.113638         0.111961         2.019093
 H         2.425076         2.526650         1.878185
 H         3.999330         1.836108         1.280980
 H         2.379748         2.202826        -2.050453
 H         4.089436         2.036938        -1.480457
 H         2.630712        -0.154023        -2.005275
