19
Iteration:  4496charge 0 multiplicity 1
 C        -0.099265         0.450557         0.011603
 C         1.422166         0.163152         0.020368
 O         1.869611        -1.270022         0.133764
 C         3.130021        -0.494489         0.151247
 C         2.528429         0.505795         1.080447
 C         3.019213         1.893533         1.074814
 O         2.717588         2.595073        -0.129049
 C         2.977887         1.787141        -1.275524
 C         2.583060         0.325703        -1.026988
 H        -0.587486         0.203348         0.918341
 H        -0.112075         1.542622        -0.292866
 H        -0.546456        -0.177563        -0.717615
 H         4.003436        -1.215234         0.176077
 H         2.331316         0.114810         2.075455
 H         2.640872         2.526880         1.813580
 H         4.140815         1.867328         1.280605
 H         2.441877         2.214606        -2.136788
 H         4.053513         1.929620        -1.757623
 H         2.742974        -0.231864        -1.954861
