19
Iteration:  2605charge 0 multiplicity 1
 C        -0.047886         0.511127        -0.013169
 C         1.480319         0.178199        -0.056210
 O         1.933783        -1.315974         0.052125
 C         3.157067        -0.529983         0.087248
 C         2.506805         0.474241         1.127656
 C         3.026426         1.961598         1.210574
 O         2.706978         2.561020        -0.099060
 C         2.923466         1.746194        -1.220760
 C         2.535536         0.319680        -1.083501
 H        -0.558506         0.478526         0.914520
 H        -0.103623         1.608071        -0.162987
 H        -0.706395         0.120947        -0.779256
 H         4.136453        -1.021948         0.299758
 H         2.114400        -0.034911         2.028243
 H         2.371739         2.502841         2.000909
 H         4.085592         2.072429         1.554978
 H         2.449865         2.326513        -2.107369
 H         3.879612         1.919697        -1.671798
 H         2.348458        -0.281129        -2.041993
