19
Iteration:  3624
 C        -0.151167         0.443581        -0.043730
 C         1.423248         0.143271         0.066220
 O         1.859114        -1.318313         0.183579
 C         3.171872        -0.498268         0.046235
 C         2.574433         0.452528         1.162019
 C         3.057351         2.050604         1.094856
 O         2.682991         2.580139        -0.144101
 C         3.080142         1.715413        -1.270039
 C         2.505242         0.364894        -1.055098
 H        -0.759887        -0.069710         0.633183
 H        -0.068542         1.550941         0.172207
 H        -0.385262         0.399532        -1.039949
 H         4.023998        -1.068585        -0.008172
 H         2.415462         0.029463         2.205560
 H         2.436838         2.688972         1.767175
 H         4.120050         2.046889         1.127806
 H         2.481452         2.125546        -2.062461
 H         4.106420         1.712815        -1.520301
 H         2.267109        -0.121870        -1.999509
