19
Iteration:   344
 C        -0.087668         0.481573        -0.040473
 C         1.450915         0.146775         0.059888
 O         1.861628        -1.326176         0.105504
 C         3.067625        -0.554709        -0.003299
 C         2.642998         0.420823         1.074338
 C         3.002820         1.904768         1.193846
 O         2.754039         2.708146        -0.062201
 C         3.070537         1.779913        -1.211668
 C         2.406770         0.362708        -1.107548
 H        -0.594120         0.039726         0.826668
 H        -0.175094         1.523775        -0.142432
 H        -0.345822         0.017906        -0.917190
 H         4.013935        -1.038142        -0.170571
 H         2.634892         0.117542         2.099899
 H         2.331442         2.270251         1.912735
 H         4.043743         2.121311         1.541334
 H         2.603785         2.256839        -2.103517
 H         4.109181         1.729678        -1.399407
 H         2.124499        -0.100852        -2.011105
