19
Iteration:  2074
 C        -0.051957         0.355664         0.059829
 C         1.442994         0.117810         0.018099
 O         1.878270        -1.258198         0.077797
 C         3.094209        -0.419654         0.090815
 C         2.329478         0.484280         1.044020
 C         2.990366         1.870078         1.149863
 O         2.851597         2.630349        -0.073975
 C         3.115231         1.813174        -1.266940
 C         2.516009         0.372489        -1.108168
 H        -0.520331         0.007747         1.020136
 H        -0.292926         1.353458         0.105454
 H        -0.444345        -0.036887        -0.902702
 H         4.078551        -0.890380         0.114933
 H         2.165312        -0.064711         2.007148
 H         2.209325         2.283492         1.896353
 H         4.104841         1.849020         1.317761
 H         2.389795         2.345351        -1.946006
 H         4.164908         1.854894        -1.639796
 H         2.480700        -0.227602        -1.977507
