19
Iteration:  3835charge 0 multiplicity 1
 C        -0.046308         0.554667         0.010776
 C         1.400070         0.116452         0.064394
 O         1.819767        -1.349550         0.161047
 C         3.176698        -0.482976         0.054513
 C         2.578040         0.495320         1.065870
 C         2.946643         1.978641         1.100861
 O         2.694762         2.585800        -0.144396
 C         3.087384         1.705977        -1.304063
 C         2.547358         0.363489        -1.031019
 H        -0.543168        -0.037848         0.828312
 H        -0.325475         1.533539         0.138300
 H        -0.594476         0.145739        -0.900326
 H         4.118225        -0.997832         0.046727
 H         2.651062         0.149457         2.169113
 H         2.113353         2.376483         1.766030
 H         3.885435         2.158004         1.450549
 H         2.856451         2.273282        -2.194971
 H         4.254172         1.673924        -1.267717
 H         2.317011        -0.284328        -1.931852
