19
Iteration:   957charge 0 multiplicity 1
 C        -0.087433         0.486956        -0.052416
 C         1.420241         0.147935        -0.003551
 O         1.845859        -1.269631         0.055421
 C         3.172840        -0.561760         0.127244
 C         2.564669         0.457905         1.092079
 C         3.025935         1.910702         1.146160
 O         2.733324         2.566056        -0.056154
 C         3.008512         1.834466        -1.251670
 C         2.520965         0.364079        -1.044453
 H        -0.657697         0.087266         0.840845
 H        -0.199998         1.626338        -0.090015
 H        -0.529957         0.020764        -0.913327
 H         3.999176        -1.307956         0.243906
 H         2.407270         0.062843         2.081216
 H         2.512669         2.492193         1.912031
 H         4.109688         1.934034         1.286374
 H         2.292439         2.191031        -1.932941
 H         4.036286         2.142884        -1.708736
 H         2.500928        -0.126367        -1.959586
