19
Iteration:   256
 C        -0.048918         0.471501        -0.029540
 C         1.419000         0.154779         0.012211
 O         1.862659        -1.348477         0.085618
 C         3.105688        -0.485784         0.066544
 C         2.528155         0.461516         1.076088
 C         3.038100         1.922789         1.148066
 O         2.829669         2.586174        -0.060819
 C         2.994652         1.807700        -1.220085
 C         2.417556         0.408406        -1.076814
 H        -0.630355         0.041702         0.818143
 H        -0.230747         1.509500        -0.071119
 H        -0.331204        -0.112962        -0.940239
 H         4.176563        -0.898991         0.107615
 H         2.460136        -0.010505         2.085467
 H         2.391219         2.350661         1.933559
 H         4.093447         1.938360         1.510300
 H         2.520939         2.437482        -2.061627
 H         4.082849         1.654020        -1.508664
 H         2.185519        -0.053098        -2.078985
