19
Iteration:  3913
 C        -0.120400         0.395015        -0.078187
 C         1.392098         0.262863         0.020974
 O         1.877679        -1.316513         0.168740
 C         3.116156        -0.488022         0.098949
 C         2.574038         0.498454         1.152970
 C         3.081584         1.929296         1.087900
 O         2.764632         2.585760        -0.155493
 C         3.046604         1.764441        -1.259458
 C         2.480088         0.339351        -1.007009
 H        -0.650043         0.025538         0.849725
 H        -0.421988         1.395452        -0.383814
 H        -0.546122        -0.291233        -0.911144
 H         4.105340        -1.006591         0.054297
 H         2.210784         0.251405         2.231978
 H         2.558973         2.597512         1.933761
 H         4.208168         2.062034         1.295453
 H         2.401133         2.252798        -2.006216
 H         4.030128         1.803158        -1.607501
 H         2.234464        -0.263907        -1.951409
