19
Iteration:  3628charge 0 multiplicity 1
 C        -0.097272         0.443286        -0.012895
 C         1.477514         0.159560         0.075639
 O         1.833989        -1.311490         0.166720
 C         3.129345        -0.506980         0.042156
 C         2.561204         0.502600         1.159338
 C         3.028243         2.017511         1.084373
 O         2.680731         2.576224        -0.150831
 C         3.060308         1.699202        -1.264245
 C         2.504127         0.354359        -1.046437
 H        -0.789870        -0.185022         0.663363
 H        -0.162722         1.575006         0.159762
 H        -0.376049         0.342854        -1.150372
 H         4.268972        -0.929745        -0.055836
 H         2.319560         0.040594         2.136196
 H         2.563633         2.574844         1.897119
 H         4.172957         2.109895         1.208218
 H         2.554650         2.096827        -2.157515
 H         4.197717         1.751177        -1.489291
 H         2.295490        -0.098979        -2.008128
