19
Iteration:  1318
 C        -0.013501         0.473569        -0.112659
 C         1.454251         0.117516         0.057982
 O         1.911441        -1.305983         0.036616
 C         3.139805        -0.546625         0.032542
 C         2.470790         0.500349         1.079737
 C         3.081381         1.984594         1.198462
 O         2.783668         2.597250        -0.041545
 C         2.912703         1.733922        -1.189297
 C         2.400054         0.355574        -1.037344
 H        -0.763160        -0.086731         0.591134
 H        -0.167854         1.646681         0.082997
 H        -0.334790         0.331493        -1.210947
 H         4.205555        -1.026359        -0.026763
 H         2.377642         0.206448         2.136805
 H         2.654375         2.665457         1.886259
 H         4.202575         1.916743         1.477054
 H         2.531307         2.367479        -2.039654
 H         3.998339         1.619243        -1.332113
 H         2.074501        -0.180757        -1.929428
