19
Iteration:  1472charge 0 multiplicity 1
 C        -0.161385         0.459857         0.032858
 C         1.367213         0.137420        -0.047382
 O         1.959301        -1.253351         0.074046
 C         3.087600        -0.501962         0.138972
 C         2.506603         0.399860         1.108229
 C         3.011797         1.863819         1.147283
 O         2.781078         2.586717        -0.110090
 C         2.999843         1.855254        -1.279358
 C         2.638962         0.419725        -1.071969
 H        -0.792560         0.033243         0.901123
 H        -0.168705         1.464529         0.149941
 H        -0.729495         0.249632        -0.918077
 H         3.952075        -1.161922         0.139856
 H         2.210541        -0.197117         2.045899
 H         2.532116         2.454320         1.873081
 H         4.141910         1.806284         1.396805
 H         2.182533         2.261575        -1.872370
 H         4.118399         1.748345        -1.493314
 H         2.551725        -0.047059        -2.084295
