19
Iteration:  1720charge 0 multiplicity 1
 C         0.025191         0.522024        -0.090309
 C         1.441196         0.068895         0.072943
 O         1.893075        -1.347389         0.151277
 C         3.111037        -0.493259         0.028575
 C         2.534389         0.426680         1.078773
 C         3.016785         1.895110         1.168388
 O         2.711126         2.612892        -0.090914
 C         2.993015         1.834353        -1.229063
 C         2.446900         0.431365        -1.081187
 H        -0.587122         0.160543         0.661564
 H        -0.215646         1.623311         0.062516
 H        -0.352425         0.189239        -1.014421
 H         4.071414        -1.050309         0.095793
 H         2.332018         0.011331         2.066232
 H         2.292095         2.285452         1.945508
 H         4.142191         1.896722         1.397151
 H         2.702533         2.412066        -2.112989
 H         4.038035         1.651381        -1.495242
 H         2.332369        -0.100761        -2.038368
