19
Iteration:  1872
 C        -0.077609         0.438633        -0.071563
 C         1.361688         0.134545        -0.015939
 O         1.887812        -1.289459         0.058065
 C         3.120738        -0.487719         0.137183
 C         2.488135         0.442487         1.169012
 C         3.061330         1.930171         1.124861
 O         2.821080         2.611179        -0.062914
 C         2.884905         1.850770        -1.261683
 C         2.619343         0.289193        -1.061734
 H        -0.648918        -0.097638         0.624876
 H        -0.242447         1.669584         0.030731
 H        -0.676044         0.304357        -0.958429
 H         4.222312        -1.071975         0.152571
 H         2.133603         0.221609         2.143355
 H         2.761517         2.569962         1.904265
 H         4.149427         1.730106         1.401688
 H         2.033951         2.144251        -1.813924
 H         3.905488         1.988470        -1.715199
 H         2.765327        -0.234340        -2.025215
