19
Iteration:  4471
 C         0.051269         0.456936        -0.122994
 C         1.482830         0.156273         0.067064
 O         1.802956        -1.337597         0.194526
 C         3.111607        -0.529967         0.085189
 C         2.576209         0.491293         1.105263
 C         3.065273         1.997563         1.125263
 O         2.675765         2.624698        -0.141854
 C         2.962799         1.818259        -1.211030
 C         2.454493         0.295991        -1.046527
 H        -0.536829         0.140948         0.795386
 H         0.017174         1.539833        -0.298737
 H        -0.348743        -0.262665        -0.928979
 H         3.885586        -1.229078         0.119810
 H         2.270788        -0.006066         2.060647
 H         2.818340         2.687249         1.879067
 H         4.105232         1.929340         1.095573
 H         2.534732         2.316427        -2.046728
 H         4.055168         1.860855        -1.636199
 H         2.325626        -0.254733        -1.994743
