19
Iteration:  2523
 C        -0.049152         0.359719         0.048050
 C         1.455616         0.104113        -0.067718
 O         1.843818        -1.255129         0.110169
 C         3.134952        -0.443518         0.093019
 C         2.382765         0.492175         1.138978
 C         3.021741         1.871087         1.145088
 O         2.753451         2.569526        -0.077241
 C         3.080768         1.887828        -1.344122
 C         2.551110         0.433195        -1.099912
 H        -0.430164        -0.220156         0.992780
 H        -0.358099         1.425510         0.072853
 H        -0.578698        -0.059891        -0.857750
 H         4.066287        -1.269314         0.187828
 H         2.140390         0.085739         2.158155
 H         2.697385         2.440568         2.013497
 H         4.119819         1.640752         1.185620
 H         2.598117         2.410719        -2.114845
 H         4.134007         1.873928        -1.323822
 H         2.365791        -0.256525        -1.897153
