19
Iteration:  3292
 C        -0.003712         0.405379        -0.027735
 C         1.414012         0.110276        -0.003656
 O         1.901557        -1.280164         0.125018
 C         3.138921        -0.500186         0.078114
 C         2.480822         0.516508         1.165139
 C         2.999729         2.001429         1.118835
 O         2.846334         2.587176        -0.119536
 C         2.949339         1.773640        -1.254514
 C         2.426610         0.339568        -1.066901
 H        -0.391927        -0.026728         0.952705
 H        -0.151943         1.474642         0.059670
 H        -0.468432        -0.025556        -0.994007
 H         3.881524        -1.207089         0.142976
 H         2.251972         0.098154         2.149634
 H         2.419635         2.722941         1.740575
 H         4.052911         2.108246         1.235878
 H         2.664704         2.370414        -2.193715
 H         4.008076         1.581503        -1.355097
 H         2.147952        -0.217008        -2.028526
