19
Iteration:  4218
 C        -0.074765         0.496593         0.096317
 C         1.416198         0.166221         0.014266
 O         1.865303        -1.239338         0.157760
 C         3.161820        -0.527704         0.104334
 C         2.502344         0.456799         1.095494
 C         2.942659         1.942745         1.079729
 O         2.709691         2.537808        -0.166819
 C         3.077222         1.818885        -1.278803
 C         2.583346         0.335960        -1.110059
 H        -0.542549        -0.049911         0.972181
 H        -0.184995         1.541197        -0.032459
 H        -0.631919         0.007609        -0.810869
 H         4.011755        -1.123719         0.111196
 H         2.298995         0.018553         2.126389
 H         2.306332         2.404336         1.792853
 H         4.032474         2.026140         1.324491
 H         2.859047         2.227811        -2.225520
 H         4.302471         1.784063        -1.277690
 H         2.287114        -0.331985        -1.944296
