19
Iteration:  2452
 C        -0.012240         0.415128        -0.013543
 C         1.455162         0.168337         0.006521
 O         1.884254        -1.298469         0.107989
 C         3.195066        -0.480910        -0.032269
 C         2.470737         0.508609         1.084019
 C         2.883621         1.938474         1.202058
 O         2.877423         2.593099        -0.090760
 C         3.003041         1.754340        -1.222137
 C         2.439975         0.368168        -1.052373
 H        -0.303253         0.071884         0.979345
 H        -0.417470         1.494018        -0.054624
 H        -0.546926        -0.144067        -0.785086
 H         4.108616        -0.896945        -0.192371
 H         2.282108         0.031409         2.037915
 H         2.051548         2.509149         1.791252
 H         3.840350         1.823784         1.709141
 H         2.528351         2.425467        -2.065990
 H         4.051756         1.517417        -1.372658
 H         2.247369        -0.060302        -2.082347
