19
Iteration:  4660
 C         0.002792         0.486225        -0.124440
 C         1.451012         0.135042         0.099512
 O         1.841826        -1.276307         0.217647
 C         3.125625        -0.543209         0.081574
 C         2.596381         0.510650         1.122328
 C         3.041229         1.950733         1.106952
 O         2.663741         2.519210        -0.096076
 C         2.953753         1.805004        -1.318445
 C         2.516055         0.355566        -1.050769
 H        -0.748872         0.280071         0.679946
 H         0.039977         1.662885        -0.498180
 H        -0.387678        -0.183247        -0.902863
 H         4.109071        -1.098901         0.038573
 H         2.373589         0.146672         2.115075
 H         2.635753         2.556892         1.910403
 H         4.218041         1.914400         1.380570
 H         2.429612         2.276061        -2.134980
 H         3.987544         1.843822        -1.613399
 H         2.254022        -0.137797        -2.004702
