19
Iteration:  2826
 C        -0.131000         0.425956         0.168888
 C         1.452403         0.160658        -0.027364
 O         1.855314        -1.301739         0.035185
 C         3.119972        -0.466186         0.092589
 C         2.496435         0.493609         1.104762
 C         2.969641         1.965213         1.106573
 O         2.701892         2.534941        -0.119735
 C         3.126038         1.793445        -1.261517
 C         2.595035         0.356514        -1.098110
 H        -0.541774         0.110737         1.163617
 H        -0.336017         1.399985         0.058325
 H        -0.555307        -0.020785        -0.764369
 H         4.197332        -0.799057         0.087061
 H         2.327780         0.147961         2.132082
 H         2.319457         2.526216         1.870604
 H         4.025110         1.971590         1.221069
 H         2.542973         2.147810        -2.130825
 H         4.219844         1.703094        -1.382266
 H         2.586960        -0.120610        -2.028139
