19
Iteration:   777
 C        -0.047248         0.432597        -0.110522
 C         1.422758         0.145643         0.112233
 O         1.814645        -1.328082         0.133170
 C         3.144899        -0.546437        -0.006086
 C         2.612279         0.476254         1.087962
 C         2.982478         1.890626         1.220067
 O         2.808884         2.658170        -0.084004
 C         2.997033         1.829179        -1.230825
 C         2.495071         0.361707        -1.107060
 H        -0.607812         0.136553         0.847423
 H        -0.230902         1.443744        -0.161883
 H        -0.620285        -0.066649        -1.012593
 H         4.023906        -1.125365        -0.039789
 H         2.600758        -0.048715         1.990280
 H         2.286607         2.282456         1.948616
 H         3.978124         2.257883         1.583817
 H         2.426768         2.451440        -1.959373
 H         4.005587         1.893848        -1.621245
 H         2.124085        -0.032225        -2.040046
