19
Iteration:  3260charge 0 multiplicity 1
 C        -0.115294         0.469203         0.034516
 C         1.374600         0.107655         0.032248
 O         1.877011        -1.308751         0.159743
 C         3.144899        -0.468481         0.142592
 C         2.443914         0.466621         1.160629
 C         3.020077         1.882822         1.019405
 O         2.745604         2.582054        -0.151396
 C         3.037810         1.876837        -1.314788
 C         2.646182         0.369178        -1.075481
 H        -0.694699        -0.234831         0.751431
 H        -0.287057         1.486266         0.339858
 H        -0.713676         0.247133        -0.966841
 H         4.029194        -1.110502         0.331847
 H         2.312565        -0.043224         2.122510
 H         2.777197         2.582756         1.873711
 H         4.078159         1.904957         1.147132
 H         2.436258         2.245308        -2.235269
 H         4.119818         1.950991        -1.568239
 H         2.599963        -0.296105        -2.010475
