19
Iteration:  3246
 C        -0.037554         0.395856         0.000665
 C         1.466683         0.130956         0.002038
 O         1.836732        -1.279277         0.190093
 C         3.114509        -0.606155         0.185737
 C         2.481029         0.501507         1.079262
 C         3.071220         1.878268         1.092254
 O         2.668285         2.642673        -0.156521
 C         3.051396         1.834735        -1.313384
 C         2.555742         0.395091        -1.078978
 H        -0.430944        -0.180190         0.834237
 H        -0.056551         1.507808         0.424149
 H        -0.520800         0.363982        -0.991964
 H         3.981760        -1.126758         0.196278
 H         2.132861         0.360187         2.094599
 H         2.427513         2.442731         1.738886
 H         4.115582         1.790706         1.135840
 H         2.574311         2.415896        -2.125575
 H         4.116158         1.901027        -1.496378
 H         2.387103        -0.104376        -2.049096
