19
Iteration:   599
 C        -0.023912         0.388453         0.003750
 C         1.414438         0.141281        -0.029214
 O         1.861916        -1.220860         0.057383
 C         3.079552        -0.532179         0.093351
 C         2.487818         0.464036         1.140149
 C         3.030469         1.907093         1.121803
 O         2.748452         2.590479        -0.064280
 C         3.029192         1.793497        -1.255095
 C         2.556612         0.429457        -1.077898
 H        -0.328504         0.018892         1.006177
 H        -0.246462         1.551982        -0.123589
 H        -0.686034        -0.226528        -0.671821
 H         4.012798        -1.120708         0.151234
 H         2.027941         0.005522         2.064429
 H         2.713427         2.559403         1.975496
 H         4.137758         1.778434         1.240026
 H         2.367527         2.272613        -2.086849
 H         4.158016         1.852288        -1.458506
 H         2.433729        -0.151091        -2.041828
