19
Iteration:   441charge 0 multiplicity 1
 C        -0.076618         0.386961        -0.073205
 C         1.433306         0.202418         0.016012
 O         1.796600        -1.252822         0.170216
 C         3.117458        -0.582253         0.013916
 C         2.637078         0.429993         1.066910
 C         3.069476         1.892069         1.132670
 O         2.763983         2.594989        -0.047331
 C         2.996138         1.845050        -1.209610
 C         2.498827         0.434531        -1.053403
 H        -0.603851        -0.210423         0.730656
 H        -0.327611         1.414786        -0.099695
 H        -0.270822        -0.127735        -1.064484
 H         3.794866        -1.391259        -0.127388
 H         2.352620         0.158726         2.053300
 H         2.493496         2.390640         1.894689
 H         4.085364         2.115303         1.330505
 H         2.376060         2.325140        -2.014058
 H         4.115002         1.932948        -1.459264
 H         2.155871         0.164313        -2.015595
