19
Iteration:  4301charge 0 multiplicity 1
 C        -0.058459         0.399809        -0.039111
 C         1.448875         0.130654        -0.011329
 O         1.873812        -1.242977         0.110515
 C         3.107333        -0.467721         0.168856
 C         2.476931         0.529361         1.095099
 C         3.056377         1.923658         1.114349
 O         2.759871         2.600138        -0.083844
 C         2.963255         1.709453        -1.325675
 C         2.568425         0.355143        -1.033615
 H        -0.519779         0.257818         0.945017
 H        -0.166036         1.554890        -0.033434
 H        -0.580466        -0.151547        -0.821204
 H         3.987984        -1.207592         0.305558
 H         2.161029         0.179670         2.051986
 H         2.759436         2.592875         2.081439
 H         4.120846         1.789356         1.005739
 H         2.198669         2.123082        -2.108279
 H         4.068248         1.873396        -1.589496
 H         2.326370        -0.138960        -1.978488
