19
Iteration:  1441charge 0 multiplicity 1
 C         0.098630         0.368805         0.084255
 C         1.451243         0.124071         0.004626
 O         1.828386        -1.284548        -0.000507
 C         3.048409        -0.480021         0.048826
 C         2.452723         0.483393         1.054147
 C         2.910380         1.959647         1.169554
 O         2.820812         2.654855        -0.085313
 C         3.037075         1.746835        -1.164353
 C         2.491654         0.366294        -1.079396
 H        -0.357854         0.135920         1.153057
 H        -0.010844         1.409843        -0.135834
 H        -0.481711        -0.134174        -0.806725
 H         4.001367        -1.125137        -0.037136
 H         2.291090        -0.009577         2.043502
 H         2.356355         2.511419         1.850866
 H         3.941075         1.992231         1.409928
 H         2.781504         2.287244        -2.070558
 H         4.145405         1.688001        -1.417985
 H         2.309040         0.043596        -2.121172
