19
Iteration:   751charge 0 multiplicity 1
 C        -0.013285         0.448441         0.012140
 C         1.408467         0.149327         0.046232
 O         1.898428        -1.279690         0.063831
 C         3.161521        -0.483948        -0.037618
 C         2.452347         0.466531         1.138079
 C         2.977677         1.882861         1.193028
 O         2.727812         2.625461        -0.099175
 C         3.067853         1.731243        -1.210382
 C         2.478967         0.403391        -1.108143
 H        -0.351301         0.312466         1.032539
 H        -0.200442         1.539616        -0.133189
 H        -0.651678        -0.104087        -0.599894
 H         4.103346        -1.061280        -0.150945
 H         2.285224        -0.188406         2.060225
 H         2.383714         2.449333         1.935625
 H         4.040697         2.003271         1.413212
 H         2.749666         2.416515        -2.073458
 H         4.165602         1.592384        -1.342717
 H         2.297467        -0.114416        -2.069895
