19
Iteration:  1595charge 0 multiplicity 1
 C        -0.132641         0.451462         0.087840
 C         1.393678         0.109118         0.009718
 O         1.879236        -1.314291         0.050191
 C         3.136588        -0.516661         0.008403
 C         2.587742         0.412807         1.120190
 C         2.829000         1.891773         1.132613
 O         2.830836         2.612406        -0.086061
 C         3.152571         1.874653        -1.286562
 C         2.521019         0.438306        -1.079522
 H        -0.569252         0.379809         1.109695
 H        -0.285098         1.454857        -0.098332
 H        -0.767131        -0.175267        -0.581248
 H         4.010403        -1.232992         0.007743
 H         2.361383         0.020525         2.129660
 H         2.171338         2.232646         1.855834
 H         3.817372         2.166421         1.717154
 H         2.652147         2.280294        -2.127372
 H         4.336662         1.876662        -1.468991
 H         2.307040        -0.159084        -1.979834
