19
Iteration:  3723
 C        -0.107201         0.402787        -0.038528
 C         1.393771         0.137828         0.100289
 O         1.860519        -1.270396         0.186259
 C         3.119507        -0.499340         0.053608
 C         2.578456         0.480091         1.083297
 C         2.927500         1.990484         1.129077
 O         2.852177         2.604409        -0.117223
 C         3.009198         1.760561        -1.265443
 C         2.520729         0.299974        -1.126916
 H        -0.650811         0.190824         0.823165
 H        -0.171922         1.429634        -0.461654
 H        -0.430222        -0.279485        -0.731167
 H         4.097400        -0.779359         0.167590
 H         2.495209         0.152315         2.169189
 H         2.496223         2.669359         1.979703
 H         4.103221         2.013062         1.434075
 H         2.384360         2.245843        -2.001624
 H         4.051500         1.814792        -1.754815
 H         2.166364        -0.121548        -2.042630
