19
Iteration:  3336
 C        -0.075549         0.379597         0.031693
 C         1.458494         0.119097        -0.006425
 O         1.866605        -1.292080         0.120615
 C         3.099934        -0.539108         0.089337
 C         2.543662         0.540490         1.112130
 C         2.931462         1.966345         1.176931
 O         2.838899         2.625259        -0.149267
 C         3.052962         1.760792        -1.262601
 C         2.447844         0.388818        -1.085570
 H        -0.568076         0.474640         1.056895
 H        -0.363778         1.299974        -0.368805
 H        -0.628993        -0.457624        -0.546007
 H         4.024069        -0.952554         0.090132
 H         2.410652         0.052444         2.080050
 H         2.335082         2.671530         1.831086
 H         4.184147         2.038834         1.413263
 H         2.553449         2.229059        -2.176467
 H         4.074734         1.578261        -1.552679
 H         2.433423        -0.105989        -2.126232
