19
Iteration:   776charge 0 multiplicity 1
 C        -0.034497         0.434694        -0.103831
 C         1.418677         0.147094         0.107842
 O         1.812891        -1.329760         0.131438
 C         3.141552        -0.548130        -0.001774
 C         2.617259         0.491577         1.083399
 C         2.975655         1.892630         1.221179
 O         2.809588         2.646394        -0.085057
 C         3.000710         1.832439        -1.221684
 C         2.489154         0.362665        -1.113095
 H        -0.617348         0.131139         0.844608
 H        -0.194709         1.404464        -0.168470
 H        -0.572909        -0.083525        -0.984383
 H         4.000315        -1.088279        -0.043786
 H         2.585760        -0.056741         1.970668
 H         2.270306         2.256722         1.945876
 H         3.974916         2.231989         1.547553
 H         2.417219         2.470986        -1.986830
 H         4.018190         1.890078        -1.595121
 H         2.106984        -0.029120        -2.025400
