19
Iteration:  4699
 C        -0.041547         0.484776         0.041317
 C         1.418999         0.030076         0.019731
 O         1.890665        -1.333980         0.155894
 C         3.145888        -0.494837         0.079356
 C         2.425923         0.533796         1.107702
 C         3.000850         1.974428         1.051055
 O         2.724027         2.590711        -0.126267
 C         3.081790         1.757434        -1.228420
 C         2.513522         0.355799        -1.094136
 H        -0.620467         0.629494         0.946586
 H         0.050707         1.485017        -0.201368
 H        -0.618861        -0.028315        -0.775695
 H         4.077456        -1.013921         0.046849
 H         2.235194         0.116019         2.136254
 H         2.418318         2.615489         1.835458
 H         4.167648         2.030588         1.291553
 H         2.674395         2.317576        -2.116378
 H         4.205710         1.859301        -1.478092
 H         2.273982        -0.272324        -1.968956
