19
Iteration:  3218charge 0 multiplicity 1
 C        -0.090879         0.479623        -0.043147
 C         1.399593         0.132555         0.101521
 O         1.845132        -1.279003         0.106751
 C         3.162205        -0.494845         0.026055
 C         2.559503         0.513856         1.134454
 C         3.047117         2.008259         1.145676
 O         2.668617         2.591873        -0.146821
 C         3.025604         1.679789        -1.200689
 C         2.543638         0.292677        -1.073803
 H        -0.586293         0.034510         0.878843
 H        -0.207056         1.486835         0.114805
 H        -0.461252         0.092552        -1.032421
 H         4.209957        -1.096234        -0.080600
 H         2.491838         0.192925         2.199169
 H         2.437500         2.724567         1.758300
 H         4.249138         2.053835         1.197748
 H         2.622513         2.199139        -2.127064
 H         4.145677         1.718882        -1.374020
 H         2.356596        -0.206988        -2.064246
