19
Iteration:  4576
 C        -0.060154         0.348925         0.048293
 C         1.424197         0.166505         0.045502
 O         1.861596        -1.258006         0.142117
 C         3.104882        -0.486897         0.057550
 C         2.532333         0.515871         1.117352
 C         2.954313         1.995585         1.102092
 O         2.830849         2.589616        -0.153118
 C         3.067713         1.727581        -1.267694
 C         2.476455         0.344420        -1.106960
 H        -0.477806        -0.218431         0.888999
 H        -0.353805         1.360373         0.118225
 H        -0.468856         0.110206        -0.905240
 H         4.067087        -1.023504         0.205232
 H         2.385451         0.025662         2.095757
 H         2.204100         2.565324         1.646953
 H         3.914189         2.186330         1.543255
 H         2.540615         2.268276        -2.083924
 H         4.210988         1.616979        -1.311190
 H         2.152309         0.010405        -2.069670
