19
Iteration:  2943charge 0 multiplicity 1
 C        -0.098821         0.373119         0.013715
 C         1.350924         0.077591        -0.118858
 O         1.879562        -1.322282         0.103188
 C         3.046118        -0.494291         0.157566
 C         2.497383         0.524448         1.104389
 C         3.130219         1.927244         1.101399
 O         2.789324         2.681887        -0.106529
 C         2.983557         1.820345        -1.264551
 C         2.529897         0.380585        -1.012122
 H        -0.256574         0.014244         1.078723
 H        -0.372431         1.410482        -0.183864
 H        -0.552427        -0.372666        -0.731036
 H         4.073611        -1.013137         0.286347
 H         2.360836         0.112293         2.099686
 H         2.715403         2.496684         1.859734
 H         4.243549         1.878427         1.172273
 H         2.458169         2.351345        -2.069122
 H         4.060460         1.870861        -1.403774
 H         2.538090        -0.256130        -1.928220
