19
Iteration:   499charge 0 multiplicity 1
 C        -0.109203         0.518623         0.067329
 C         1.359004         0.127364         0.017653
 O         1.933508        -1.440948         0.050429
 C         3.107059        -0.465375         0.116599
 C         2.399912         0.460572         1.123477
 C         3.044820         1.843259         1.108122
 O         2.784974         2.685047        -0.089057
 C         2.987449         1.858291        -1.281084
 C         2.642652         0.385832        -1.112230
 H        -0.669230        -0.070917         0.782934
 H        -0.228850         1.759330         0.191936
 H        -0.508966         0.310244        -0.893015
 H         3.997444        -1.082261         0.351125
 H         2.248744        -0.030549         2.166228
 H         2.804119         2.314647         2.090784
 H         4.121147         1.737521         1.255178
 H         2.361103         2.215332        -2.186307
 H         4.045118         1.952317        -1.682682
 H         2.401177        -0.204040        -2.030371
