19
Iteration:  3710charge 0 multiplicity 1
 C        -0.009400         0.401784        -0.021075
 C         1.428020         0.155770         0.063918
 O         1.873018        -1.341982         0.174119
 C         3.114849        -0.433516         0.050360
 C         2.466656         0.545643         1.126118
 C         3.026374         1.934098         1.136138
 O         2.814159         2.602491        -0.152684
 C         3.005459         1.749977        -1.321569
 C         2.460241         0.388914        -1.046522
 H        -0.506112         0.262938         0.920085
 H        -0.294882         1.462850        -0.323553
 H        -0.480987        -0.249141        -0.706542
 H         3.958053        -1.166962        -0.027712
 H         2.365343        -0.052892         2.015626
 H         2.207587         2.465288         1.775182
 H         4.054103         2.077463         1.651789
 H         2.474507         2.253229        -2.173524
 H         4.152712         1.699476        -1.509315
 H         2.417392        -0.279182        -1.904042
