19
Iteration:   447
 C        -0.091760         0.361502        -0.112848
 C         1.408850         0.229427         0.061933
 O         1.800484        -1.233952         0.183012
 C         3.057676        -0.600484        -0.029151
 C         2.663249         0.457020         1.064505
 C         3.077274         1.947312         1.124787
 O         2.752238         2.557308        -0.022751
 C         3.020373         1.868875        -1.212863
 C         2.533035         0.425812        -1.045103
 H        -0.606748        -0.201095         0.645178
 H        -0.342224         1.463288        -0.015687
 H        -0.260248        -0.080815        -1.134145
 H         3.934752        -1.314605        -0.145183
 H         2.492558        -0.049292         2.062325
 H         2.386389         2.249288         1.971860
 H         4.212655         2.037331         1.295602
 H         2.327413         2.277511        -1.934440
 H         4.024951         1.903258        -1.633215
 H         2.209288        -0.175404        -1.976083
