19
Iteration:  1195
 C        -0.085389         0.429881        -0.150617
 C         1.395759         0.125737         0.004195
 O         1.860434        -1.207035         0.093477
 C         3.127590        -0.533948        -0.007621
 C         2.619904         0.490918         1.087324
 C         3.065821         1.922334         1.230916
 O         2.781978         2.586624        -0.006182
 C         2.945768         1.750475        -1.192010
 C         2.467482         0.331610        -1.087210
 H        -0.595552         0.060264         0.667216
 H        -0.302391         1.654286        -0.121504
 H        -0.537033        -0.006182        -0.982727
 H         3.964032        -1.162883         0.106029
 H         2.758667         0.051297         2.083033
 H         2.496118         2.424992         1.960772
 H         4.099443         2.274448         1.503652
 H         2.361081         2.305481        -1.914454
 H         3.950068         1.803969        -1.375140
 H         2.330793        -0.133791        -2.034218
