19
Iteration:  3493charge 0 multiplicity 1
 C        -0.179365         0.394533         0.076956
 C         1.409565         0.179208         0.063435
 O         1.886220        -1.246819         0.105134
 C         3.092234        -0.537945         0.089688
 C         2.573611         0.476754         1.097382
 C         2.986268         1.955174         1.073605
 O         2.735083         2.613494        -0.173921
 C         3.134587         1.794236        -1.279471
 C         2.570315         0.320017        -1.038627
 H        -0.680628         0.111741         0.991538
 H        -0.259126         1.573550        -0.038412
 H        -0.613464        -0.171215        -0.716790
 H         3.991639        -1.104483        -0.030594
 H         2.257508         0.040839         2.102395
 H         2.393925         2.525635         1.804041
 H         3.907615         2.226108         1.428630
 H         2.533379         2.128935        -2.118692
 H         4.233872         1.775303        -1.576815
 H         2.496415        -0.403714        -1.834338
