19
Iteration:  1473charge 0 multiplicity 1
 C        -0.156918         0.458514         0.024052
 C         1.369885         0.141050        -0.044006
 O         1.959250        -1.253183         0.079755
 C         3.083056        -0.499008         0.125347
 C         2.505670         0.409284         1.112101
 C         3.018269         1.859606         1.145879
 O         2.779581         2.587076        -0.107672
 C         2.989370         1.853636        -1.272656
 C         2.642528         0.420917        -1.073967
 H        -0.806117         0.026292         0.906021
 H        -0.134155         1.454432         0.174542
 H        -0.744999         0.250943        -0.949309
 H         3.982814        -1.179336         0.157302
 H         2.207948        -0.193112         2.035322
 H         2.563539         2.434330         1.851482
 H         4.102457         1.784965         1.406564
 H         2.211043         2.252974        -1.883959
 H         4.086974         1.737314        -1.481122
 H         2.538966        -0.084807        -2.065586
