19
Iteration:   780charge 0 multiplicity 1
 C        -0.090807         0.420455        -0.124601
 C         1.435573         0.137277         0.112879
 O         1.823546        -1.318818         0.138293
 C         3.146640        -0.538456        -0.020975
 C         2.598890         0.426740         1.095559
 C         3.006424         1.895874         1.211238
 O         2.807077         2.687992        -0.074215
 C         2.983600         1.820333        -1.257233
 C         2.509813         0.363240        -1.082461
 H        -0.567157         0.148253         0.806569
 H        -0.329586         1.624033        -0.157541
 H        -0.665964         0.010937        -1.010585
 H         4.115943        -1.241448        -0.023854
 H         2.621092        -0.053055         2.126478
 H         2.306327         2.384573         1.951905
 H         3.972713         2.266875         1.676868
 H         2.418995         2.371802        -1.922600
 H         4.015147         1.890389        -1.687109
 H         2.190938        -0.065909        -2.087946
