19
Iteration:   421charge 0 multiplicity 1
 C        -0.018078         0.419228         0.020474
 C         1.405315         0.110098         0.028654
 O         1.843894        -1.329995         0.040331
 C         3.080308        -0.484563         0.035379
 C         2.463568         0.456394         1.074427
 C         3.044827         1.928378         1.151168
 O         2.777210         2.659936        -0.046441
 C         3.046469         1.836458        -1.233965
 C         2.470351         0.367107        -1.099262
 H        -0.408619         0.232398         1.055573
 H        -0.016473         1.583457        -0.088463
 H        -0.515269        -0.136153        -0.701282
 H         4.072168        -0.872833         0.151593
 H         2.400067        -0.095008         2.036031
 H         2.634358         2.389742         2.009601
 H         4.149811         1.807084         1.203980
 H         2.599065         2.396571        -2.103767
 H         4.115080         1.700458        -1.389164
 H         2.359664        -0.329154        -1.893841
