19
Iteration:  2620
 C         0.046141         0.516689         0.053442
 C         1.409771         0.089400        -0.001782
 O         1.871401        -1.323311         0.006944
 C         3.111124        -0.453974         0.115387
 C         2.437260         0.486829         1.117399
 C         2.950445         1.917639         1.176823
 O         2.724393         2.584924        -0.111121
 C         3.018642         1.782423        -1.291568
 C         2.580447         0.368672        -1.062305
 H        -0.204533         0.062556         1.061767
 H        -0.032765         1.559584        -0.147223
 H        -0.536969        -0.100166        -0.659721
 H         4.008774        -0.959168         0.039320
 H         2.353817         0.029705         2.156548
 H         2.450776         2.647200         1.927888
 H         4.053519         1.944412         1.389904
 H         2.304663         2.096338        -2.056908
 H         4.119540         1.777028        -1.441714
 H         2.547048        -0.184968        -1.988250
