19
Iteration:   342
 C        -0.082964         0.489431        -0.031668
 C         1.420423         0.145992         0.081883
 O         1.873333        -1.332452         0.112266
 C         3.060825        -0.536428        -0.007489
 C         2.632427         0.430235         1.062581
 C         3.019413         1.870797         1.192486
 O         2.749875         2.704865        -0.066175
 C         3.074064         1.769672        -1.204425
 C         2.417295         0.377252        -1.106063
 H        -0.617533         0.040139         0.841057
 H        -0.217682         1.498759        -0.152123
 H        -0.361968         0.017538        -1.099652
 H         4.087593        -0.993993        -0.137487
 H         2.629219         0.148454         2.116842
 H         2.284615         2.246272         1.922353
 H         4.063116         2.130502         1.451018
 H         2.645128         2.285962        -2.113008
 H         4.114896         1.787212        -1.460240
 H         2.148475        -0.131881        -2.041422
