19
Iteration:  4650
 C         0.064656         0.432206        -0.120762
 C         1.413055         0.087374         0.142953
 O         1.783493        -1.264683         0.190822
 C         3.131079        -0.470701         0.071226
 C         2.534928         0.537812         1.115804
 C         3.044924         1.913892         1.151564
 O         2.681039         2.546215        -0.151568
 C         2.958619         1.793944        -1.286118
 C         2.552174         0.358339        -1.065924
 H        -0.529328         0.405937         0.835587
 H        -0.095480         1.660731        -0.287200
 H        -0.277126        -0.100308        -1.005810
 H         3.993249        -1.217177         0.238337
 H         2.588556         0.019593         2.062030
 H         2.672592         2.532628         1.899393
 H         4.310394         1.951769         1.052963
 H         2.265367         2.242320        -2.023672
 H         3.941852         1.951055        -1.610693
 H         2.542331        -0.237066        -1.980498
