19
Iteration:  2446charge 0 multiplicity 1
 C        -0.070238         0.402691        -0.013199
 C         1.425594         0.131011        -0.007125
 O         1.908564        -1.279937         0.078429
 C         3.131944        -0.489643        -0.033307
 C         2.496433         0.493547         1.112183
 C         2.908609         1.987266         1.218046
 O         2.876781         2.629142        -0.063238
 C         2.975843         1.728344        -1.223191
 C         2.500937         0.350836        -1.120176
 H        -0.522693         0.330508         1.033838
 H        -0.308253         1.439463         0.088982
 H        -0.568456        -0.166581        -0.821969
 H         4.236082        -1.027511         0.073640
 H         2.314368        -0.001712         2.106050
 H         2.200809         2.501479         1.811549
 H         3.945643         1.913608         1.664854
 H         2.541407         2.205766        -2.029142
 H         4.114705         1.693598        -1.433278
 H         2.302453        -0.171671        -2.032323
