19
Iteration:  2766charge 0 multiplicity 1
 C        -0.114559         0.463472        -0.101054
 C         1.435799         0.106005         0.064677
 O         1.914799        -1.264517         0.138386
 C         3.110220        -0.501064         0.080860
 C         2.617543         0.469614         1.159475
 C         3.028794         1.886960         1.095009
 O         2.721453         2.643303        -0.082940
 C         2.930629         1.770810        -1.262598
 C         2.526429         0.330646        -1.063059
 H        -0.738709         0.302200         0.800447
 H        -0.018252         1.635008        -0.371750
 H        -0.620899        -0.077576        -0.935098
 H         4.156396        -0.885579        -0.054046
 H         2.610270        -0.069568         2.117218
 H         2.488907         2.430422         1.834676
 H         4.048327         2.030841         1.552549
 H         2.423459         2.354112        -2.039213
 H         4.036208         1.766940        -1.596159
 H         2.262076        -0.314595        -1.963003
