19
Iteration:  3281charge 0 multiplicity 1
 C        -0.025382         0.430840        -0.008478
 C         1.436155         0.155130         0.040175
 O         1.912676        -1.306937         0.036848
 C         3.120845        -0.482731         0.122437
 C         2.439516         0.595238         1.108350
 C         3.090595         1.959225         1.132586
 O         2.762983         2.604833        -0.143558
 C         2.990658         1.681666        -1.243075
 C         2.463007         0.326085        -1.035687
 H        -0.545296        -0.158035         0.830112
 H        -0.193607         1.489769         0.184145
 H        -0.673366         0.114674        -0.898893
 H         4.129218        -0.795242         0.158977
 H         2.126782         0.237910         2.091572
 H         2.583556         2.522886         1.959847
 H         4.049546         1.949488         1.510304
 H         2.402070         2.137236        -2.123704
 H         4.039038         1.622307        -1.532114
 H         2.336224        -0.321273        -1.964616
