19
Iteration:   799
 C        -0.078584         0.449917        -0.041209
 C         1.360087         0.105924        -0.016734
 O         1.896421        -1.328050         0.056098
 C         3.114678        -0.518138         0.123359
 C         2.552043         0.478529         1.127342
 C         3.026340         1.910197         1.145249
 O         2.864659         2.624063        -0.075585
 C         2.907468         1.837467        -1.227773
 C         2.523036         0.393174        -1.015702
 H        -0.810206        -0.018737         0.659662
 H        -0.204625         1.471537        -0.073221
 H        -0.371103         0.038426        -1.096277
 H         4.043911        -0.998682        -0.033292
 H         2.280460        -0.027842         2.004007
 H         2.591915         2.424812         1.995481
 H         4.140827         1.937599         1.266260
 H         2.213083         2.301783        -2.008360
 H         3.908632         1.930638        -1.665326
 H         2.419994        -0.130020        -1.958354
