19
Iteration:  4605charge 0 multiplicity 1
 C        -0.061868         0.411871         0.039619
 C         1.370064         0.112389        -0.002827
 O         1.907253        -1.350161         0.142419
 C         3.084162        -0.438093         0.151246
 C         2.428657         0.507494         1.149493
 C         3.043761         1.940885         1.052422
 O         2.780813         2.628037        -0.137940
 C         3.038479         1.775484        -1.300833
 C         2.558248         0.331655        -1.101104
 H        -0.671469         0.066451         0.879015
 H        -0.242904         1.556155         0.270041
 H        -0.533070         0.124867        -0.913448
 H         4.146399        -0.789655         0.364822
 H         2.204787         0.033167         2.101785
 H         2.606162         2.603634         1.780958
 H         4.221159         1.857323         1.242331
 H         2.528212         2.251525        -2.137491
 H         4.100337         1.842518        -1.533969
 H         2.339773        -0.145247        -2.074600
