19
Iteration:  4648
 C         0.055057         0.427298        -0.107505
 C         1.429479         0.089758         0.138687
 O         1.776439        -1.267212         0.183990
 C         3.126801        -0.445995         0.075736
 C         2.509094         0.510939         1.124294
 C         3.067782         1.910259         1.131449
 O         2.683743         2.571519        -0.158775
 C         2.957734         1.787698        -1.275357
 C         2.563487         0.347973        -1.074607
 H        -0.466826         0.330722         0.893907
 H        -0.082854         1.666185        -0.337669
 H        -0.288441        -0.043381        -1.058648
 H         3.949673        -1.184445         0.266361
 H         2.614674         0.003071         2.073897
 H         2.624423         2.578693         1.953843
 H         4.279202         1.968515         1.052294
 H         2.202178         2.182104        -1.935703
 H         3.976875         1.946917        -1.568919
 H         2.553422        -0.303303        -1.983205
