19
Iteration:  1730
 C         0.021035         0.515498        -0.020226
 C         1.445181         0.165997         0.054375
 O         1.910401        -1.394511         0.082250
 C         3.095558        -0.523237         0.027999
 C         2.540593         0.513462         1.097084
 C         2.931956         1.900246         1.107811
 O         2.749061         2.595237        -0.037349
 C         3.017619         1.793738        -1.213766
 C         2.418973         0.358209        -1.096140
 H        -0.588318         0.078433         0.688390
 H         0.111813         1.701184        -0.225562
 H        -0.315145         0.175558        -0.956415
 H         4.173643        -0.921075        -0.081404
 H         2.479197         0.102473         2.087569
 H         2.399656         2.526605         1.885734
 H         3.994780         2.064046         1.540791
 H         2.520946         2.312850        -2.010723
 H         4.063350         1.803842        -1.187863
 H         2.201342        -0.198386        -2.034784
