19
Iteration:  4665
 C        -0.050192         0.521937        -0.121153
 C         1.487365         0.183005         0.058328
 O         1.883131        -1.294083         0.224205
 C         3.123209        -0.544497         0.088953
 C         2.585489         0.451625         1.139230
 C         3.077145         1.956810         1.081088
 O         2.659728         2.559689        -0.091029
 C         2.961404         1.783953        -1.295451
 C         2.488707         0.333753        -1.063722
 H        -0.658957         0.268938         0.737727
 H        -0.024331         1.417261        -0.575197
 H        -0.386157        -0.074022        -0.998697
 H         4.073435        -1.042687         0.002303
 H         2.328641         0.137149         2.181789
 H         2.483493         2.511684         1.857996
 H         4.156376         2.025374         1.391333
 H         2.315209         2.273307        -2.082919
 H         4.091039         1.767065        -1.450977
 H         2.103819        -0.223611        -1.926342
