19
Iteration:  2573
 C         0.054491         0.433659        -0.141032
 C         1.463039         0.099188         0.095522
 O         1.812838        -1.338473         0.191671
 C         3.146343        -0.534006         0.017951
 C         2.515834         0.372723         1.126717
 C         3.058595         1.928178         1.151593
 O         2.711700         2.658356        -0.127933
 C         2.956673         1.861681        -1.215169
 C         2.459524         0.437877        -1.069878
 H        -0.601072         0.212587         0.671668
 H         0.203120         1.487788        -0.342157
 H        -0.418495         0.086925        -1.054421
 H         4.079422        -0.908950         0.028029
 H         2.344427        -0.044988         2.136395
 H         2.605959         2.333927         2.132417
 H         4.184315         2.084082         1.198217
 H         2.240353         2.228718        -2.064152
 H         4.050044         1.887779        -1.363669
 H         2.307295        -0.128862        -2.037705
