19
Iteration:   275
 C        -0.092205         0.402620        -0.002091
 C         1.466272         0.096852         0.034472
 O         1.780874        -1.258937         0.088326
 C         3.087894        -0.568032         0.044523
 C         2.497731         0.439700         1.169809
 C         3.036774         1.864671         1.129265
 O         2.806009         2.701108        -0.086163
 C         3.020243         1.931426        -1.295575
 C         2.612604         0.345123        -1.052295
 H        -0.435849        -0.141439         0.870105
 H        -0.096522         1.441612         0.177579
 H        -0.532224        -0.038335        -1.063842
 H         3.903012        -1.407678         0.081421
 H         2.068414         0.127818         2.154678
 H         2.607488         2.447016         2.033070
 H         4.106658         1.644473         1.308130
 H         2.222117         2.191643        -2.091469
 H         3.947057         2.089469        -1.808403
 H         2.515714        -0.020718        -2.122836
