19
Iteration:   264
 C         0.007786         0.404439        -0.013107
 C         1.396176         0.142615         0.029874
 O         1.816779        -1.325272         0.106045
 C         3.069825        -0.536862         0.076438
 C         2.500409         0.423153         1.089307
 C         3.055702         1.863872         1.182372
 O         2.823792         2.670812        -0.076057
 C         2.990577         1.862276        -1.310302
 C         2.516976         0.432989        -1.078797
 H        -0.576272         0.001702         0.808894
 H        -0.201774         1.454799        -0.058917
 H        -0.568796         0.074063        -1.026824
 H         4.095226        -1.091426         0.104641
 H         2.420148        -0.122406         2.066266
 H         2.468525         2.525489         1.915879
 H         4.119078         2.023383         1.433117
 H         2.420440         2.462293        -2.103543
 H         4.048801         1.881919        -1.497532
 H         2.322926        -0.296816        -1.921737
