19
Iteration:  3161
 C        -0.070560         0.417131         0.015929
 C         1.341615         0.091455        -0.021001
 O         1.881034        -1.306608         0.078268
 C         3.097968        -0.510707         0.157429
 C         2.535048         0.501754         1.067907
 C         3.039665         2.021016         1.124558
 O         2.816152         2.630089        -0.115019
 C         2.974501         1.780126        -1.237482
 C         2.557975         0.295971        -1.103899
 H        -0.230208         0.319206         1.101224
 H        -0.206255         1.454923        -0.268864
 H        -0.808192        -0.265616        -0.444729
 H         4.007401        -1.081750         0.344696
 H         2.414762         0.149012         2.084472
 H         2.354385         2.613473         1.826592
 H         4.047489         2.259458         1.571202
 H         2.237783         2.229777        -2.019043
 H         4.014574         1.803701        -1.645462
 H         2.547617        -0.269844        -2.100040
