19
Iteration:   333
 C        -0.067704         0.474530        -0.046888
 C         1.322309         0.147372         0.139081
 O         1.898867        -1.346944         0.138164
 C         3.106671        -0.458629        -0.049370
 C         2.559177         0.461031         1.050305
 C         3.049858         1.837674         1.131161
 O         2.750350         2.611030        -0.079857
 C         3.059600         1.807595        -1.208619
 C         2.473496         0.417517        -1.064347
 H        -0.797593         0.081273         0.676528
 H        -0.251322         1.513115        -0.037913
 H        -0.406455         0.174259        -0.939242
 H         4.080539        -0.911278         0.051905
 H         2.469491        -0.085501         1.978039
 H         2.507671         2.318163         1.901845
 H         4.144521         1.930128         1.330501
 H         2.638105         2.379295        -2.058832
 H         4.125946         1.752579        -1.356126
 H         2.305821        -0.073458        -1.984466
