19
Iteration:  2326
 C        -0.038911         0.502020        -0.007841
 C         1.375917         0.051557        -0.032245
 O         1.913645        -1.310562         0.054761
 C         3.126028        -0.470345         0.077391
 C         2.499130         0.482178         1.110276
 C         2.952822         1.920040         1.212045
 O         2.757886         2.616654        -0.094968
 C         3.015246         1.787926        -1.302518
 C         2.556421         0.354749        -1.031920
 H        -0.607000         0.255059         0.970401
 H         0.018410         1.554188         0.131294
 H        -0.665158         0.119718        -0.858841
 H         4.092200        -1.131471         0.018926
 H         2.279055         0.076608         2.132441
 H         2.374232         2.400196         1.942297
 H         4.040105         1.995293         1.663776
 H         2.531139         2.290889        -2.124286
 H         4.063870         1.713189        -1.663121
 H         2.535321        -0.159228        -1.967084
