19
Iteration:   965
 C        -0.137427         0.462369        -0.113062
 C         1.411177         0.156320         0.031392
 O         1.865544        -1.275615         0.121844
 C         3.123120        -0.541613         0.037641
 C         2.591132         0.500212         1.081117
 C         3.082461         1.895241         1.132695
 O         2.730413         2.559218        -0.032854
 C         2.971895         1.857974        -1.202959
 C         2.544790         0.344111        -1.034215
 H        -0.755906         0.093548         0.628320
 H        -0.185187         1.650295        -0.129298
 H        -0.551538         0.133620        -1.052147
 H         4.242769        -0.967737         0.171981
 H         2.391050         0.086589         2.135044
 H         2.600620         2.274957         2.065882
 H         4.171755         1.953244         1.388278
 H         2.382354         2.151609        -2.208880
 H         3.972387         1.693237        -1.645729
 H         2.395991        -0.151921        -2.055276
