19
Iteration:  1030charge 0 multiplicity 1
 C        -0.141130         0.371238         0.020731
 C         1.429802         0.165792        -0.067510
 O         1.813207        -1.254271        -0.007103
 C         3.126403        -0.534429         0.116607
 C         2.487923         0.501383         1.127621
 C         3.038632         1.898337         1.202820
 O         2.797795         2.593674        -0.069744
 C         2.991489         1.795319        -1.260767
 C         2.651149         0.378984        -1.069496
 H        -0.446466         0.020547         0.931666
 H        -0.304297         1.516388         0.090256
 H        -0.757522        -0.137824        -0.672671
 H         4.150370        -1.026427         0.265585
 H         2.164886         0.119778         2.156436
 H         2.551093         2.568716         1.937383
 H         4.168401         1.888671         1.353236
 H         2.541069         2.460033        -2.125025
 H         4.015813         1.989958        -1.638299
 H         2.376446        -0.200469        -2.005255
