19
Iteration:  2223charge 0 multiplicity 1
 C        -0.018134         0.396033        -0.053511
 C         1.405915         0.161204        -0.015978
 O         1.836376        -1.295446         0.084245
 C         3.105882        -0.451375         0.051654
 C         2.463006         0.515560         1.076943
 C         3.071568         1.937061         1.111486
 O         2.772156         2.592098        -0.029949
 C         2.945228         1.751682        -1.211301
 C         2.546449         0.373691        -1.005932
 H        -0.411564        -0.197222         0.678047
 H        -0.314805         1.484087        -0.189771
 H        -0.519484         0.068873        -0.951090
 H         4.096501        -0.935472         0.009516
 H         2.363737         0.189219         2.098945
 H         2.705031         2.522078         1.940685
 H         4.204751         1.714029         1.400039
 H         2.431651         2.203284        -2.025497
 H         4.054362         1.699752        -1.356803
 H         2.655666        -0.148432        -2.002490
