19
Iteration:  1993charge 0 multiplicity 1
 C        -0.082202         0.436632        -0.022035
 C         1.402349         0.162821        -0.021298
 O         1.929149        -1.333774         0.067352
 C         3.091408        -0.474834         0.124219
 C         2.416521         0.526108         1.063060
 C         3.003020         1.869811         1.202011
 O         2.835866         2.620246        -0.090062
 C         2.956273         1.796256        -1.255720
 C         2.597635         0.367136        -1.076013
 H        -0.533704         0.063104         0.897998
 H        -0.217439         1.609825        -0.086522
 H        -0.712273        -0.020599        -0.770842
 H         4.213929        -0.953184         0.277112
 H         2.218658         0.013547         1.988592
 H         2.657508         2.361318         2.050784
 H         4.127240         1.813573         1.440855
 H         2.222541         2.148386        -1.940731
 H         3.953132         1.933149        -1.764119
 H         2.459936        -0.208220        -1.994434
