19
Iteration:  1055
 C        -0.009471         0.463602         0.091942
 C         1.435431         0.129728        -0.038637
 O         1.865518        -1.329525         0.060827
 C         3.092792        -0.465582         0.037775
 C         2.430778         0.440620         1.061302
 C         2.861305         1.870166         1.156896
 O         2.837053         2.615232        -0.081308
 C         3.090604         1.805763        -1.239355
 C         2.530868         0.410242        -1.093250
 H        -0.324956         0.135099         1.138479
 H        -0.191781         1.525773        -0.097628
 H        -0.613029        -0.120866        -0.586668
 H         4.203054        -0.773946         0.140606
 H         2.206947         0.007231         2.003372
 H         2.402132         2.439585         1.944582
 H         3.969899         1.839327         1.441298
 H         2.662159         2.384230        -2.053839
 H         4.136677         1.771394        -1.446580
 H         2.365948        -0.084577        -1.972862
