19
Iteration:  1660charge 0 multiplicity 1
 C        -0.099893         0.382019        -0.039350
 C         1.370345         0.082178         0.051764
 O         1.839427        -1.289780         0.052855
 C         3.090841        -0.465117         0.122055
 C         2.452180         0.477007         1.165873
 C         3.063367         1.824998         1.075642
 O         2.785175         2.659595        -0.057451
 C         3.028953         1.887626        -1.282364
 C         2.608463         0.399252        -1.062578
 H        -0.531200        -0.335801         0.770915
 H        -0.268726         1.419742         0.121242
 H        -0.499439        -0.019209        -1.045960
 H         4.020921        -1.064959         0.045898
 H         2.224606         0.220270         2.218749
 H         2.953125         2.459006         1.913007
 H         4.157420         1.689649         1.055365
 H         2.407635         2.450453        -1.928052
 H         4.042370         1.893145        -1.515295
 H         2.571451        -0.130780        -2.025100
