19
Iteration:  4493
 C        -0.071033         0.453069        -0.004163
 C         1.435035         0.147360         0.008062
 O         1.841207        -1.269531         0.141029
 C         3.138795        -0.512312         0.149174
 C         2.519904         0.525305         1.095013
 C         3.052049         1.892765         1.058300
 O         2.709026         2.608647        -0.106213
 C         2.970163         1.783791        -1.291841
 C         2.577136         0.337317        -1.031884
 H        -0.626751         0.223975         0.956424
 H        -0.051770         1.537548        -0.210633
 H        -0.466743        -0.306319        -0.751584
 H         4.013639        -1.116149         0.182151
 H         2.376084         0.117250         2.120774
 H         2.528724         2.465126         1.833762
 H         4.042599         1.863700         1.269992
 H         2.457455         2.132726        -2.153340
 H         4.037037         1.902878        -1.696659
 H         2.663925        -0.220594        -1.989199
