19
Iteration:  2019
 C         0.042468         0.422366        -0.141911
 C         1.445313         0.085177         0.059604
 O         1.833345        -1.336102         0.135735
 C         3.123414        -0.461172         0.099775
 C         2.498752         0.505064         1.118189
 C         2.961860         1.898205         1.169475
 O         2.919717         2.581646        -0.086122
 C         2.876712         1.875502        -1.256772
 C         2.466242         0.400082        -1.090699
 H        -0.651445        -0.033071         0.583320
 H        -0.077326         1.418516         0.020692
 H        -0.364824         0.043341        -1.085915
 H         4.027923        -0.968868         0.121876
 H         2.467871        -0.009138         2.098461
 H         2.368351         2.382720         2.042560
 H         4.005676         1.971505         1.571470
 H         2.279946         2.444501        -2.017774
 H         3.847715         1.863231        -1.747350
 H         2.320786        -0.194236        -1.962654
