19
Iteration:  4516charge 0 multiplicity 1
 C        -0.121249         0.477665         0.034776
 C         1.413465         0.142852         0.002656
 O         1.940948        -1.361195         0.102742
 C         3.130456        -0.459126         0.095276
 C         2.377773         0.523510         1.171173
 C         3.042460         1.976503         1.121271
 O         2.767730         2.579148        -0.124498
 C         3.042700         1.739197        -1.318792
 C         2.558009         0.341468        -1.094668
 H        -0.459899         0.173724         1.056006
 H        -0.189095         1.614214        -0.038459
 H        -0.670854        -0.251481        -0.576699
 H         4.165530        -0.800400         0.230850
 H         2.246039         0.030925         2.149438
 H         2.544331         2.603600         1.793308
 H         4.033070         1.961476         1.384454
 H         2.620391         2.140543        -2.211274
 H         4.129643         1.832400        -1.654991
 H         2.166219        -0.149256        -2.018906
