19
Iteration:  3542charge 0 multiplicity 1
 C        -0.072238         0.390129        -0.007651
 C         1.414850         0.120814         0.061231
 O         1.866611        -1.307633         0.154813
 C         3.120402        -0.530584         0.023809
 C         2.462397         0.532647         1.153836
 C         2.979644         1.953154         1.099125
 O         2.819856         2.655908        -0.145964
 C         3.030639         1.755486        -1.271962
 C         2.525947         0.389037        -1.059344
 H        -0.524639         0.414043         1.007119
 H        -0.261485         1.300848        -0.422640
 H        -0.591373        -0.460800        -0.542981
 H         4.135595        -1.116496        -0.039532
 H         2.413544         0.275348         2.190550
 H         2.646390         2.655621         1.828187
 H         3.995351         1.917836         1.430822
 H         2.558167         2.215260        -2.166872
 H         4.068596         1.600091        -1.507366
 H         2.282983        -0.149040        -1.998650
