19
Iteration:  3505
 C        -0.203366         0.419287         0.036072
 C         1.388212         0.186077         0.019044
 O         1.874568        -1.319407         0.186540
 C         3.181480        -0.465358         0.032917
 C         2.594069         0.513768         1.090546
 C         2.955433         1.951798         1.077710
 O         2.782674         2.618511        -0.164948
 C         3.067916         1.693714        -1.229224
 C         2.527294         0.372550        -1.057750
 H        -0.461904         0.200920         1.055113
 H        -0.618677         1.495033        -0.279871
 H        -0.682715        -0.225234        -0.640427
 H         4.128375        -1.055434        -0.046331
 H         2.552394         0.092679         2.144758
 H         2.292562         2.378284         1.800226
 H         3.966090         1.908267         1.272786
 H         2.820646         2.205411        -2.133384
 H         4.207393         1.669529        -1.190505
 H         2.394247         0.035037        -2.051763
