19
Iteration:  1203charge 0 multiplicity 1
 C        -0.026829         0.463898        -0.116901
 C         1.397425         0.100312         0.002995
 O         1.846689        -1.252933         0.089930
 C         3.110067        -0.512207         0.021060
 C         2.650388         0.501111         1.067976
 C         3.037234         1.965182         1.194700
 O         2.783804         2.578905        -0.000600
 C         2.975675         1.781987        -1.181562
 C         2.441734         0.323927        -1.094512
 H        -0.401610        -0.019542         0.846457
 H        -0.385340         1.621803        -0.290906
 H        -0.511997        -0.139673        -0.972612
 H         3.974896        -1.112734         0.022630
 H         2.491756        -0.105380         2.010004
 H         2.262060         2.522438         1.907905
 H         4.100082         2.000799         1.699441
 H         2.472205         2.403132        -1.965287
 H         4.071002         1.761319        -1.392410
 H         2.060352        -0.086632        -2.109488
