19
Iteration:  2043
 C        -0.146783         0.471703        -0.153462
 C         1.385069         0.150934         0.053537
 O         1.948417        -1.320312         0.104451
 C         3.183487        -0.568502         0.009192
 C         2.522795         0.466678         1.152425
 C         2.990691         1.978226         1.169205
 O         2.931472         2.669848        -0.079790
 C         2.919494         1.772990        -1.197109
 C         2.468940         0.349315        -1.025902
 H        -0.870931        -0.081703         0.535123
 H        -0.446167         1.449218         0.075042
 H        -0.482210        -0.015721        -1.074510
 H         3.990190        -1.087914        -0.226349
 H         2.386221        -0.096108         2.128297
 H         2.261744         2.394658         2.018695
 H         3.956416         2.167198         1.659449
 H         2.304321         2.332523        -2.012527
 H         3.857838         1.774256        -1.743541
 H         2.339246        -0.330777        -1.937403
