19
Iteration:  4698charge 0 multiplicity 1
 C        -0.051283         0.489118         0.038856
 C         1.425049         0.033001         0.019573
 O         1.893651        -1.340986         0.157898
 C         3.141332        -0.498125         0.076828
 C         2.433625         0.536193         1.098322
 C         2.996712         1.980257         1.054684
 O         2.721013         2.591734        -0.121402
 C         3.078124         1.751851        -1.229460
 C         2.515039         0.356436        -1.088337
 H        -0.615942         0.614350         0.969339
 H         0.053662         1.516588        -0.262939
 H        -0.603480        -0.017730        -0.798537
 H         4.091042        -0.997099         0.038956
 H         2.254747         0.135794         2.139640
 H         2.448020         2.612185         1.823967
 H         4.199125         1.998208         1.302436
 H         2.657668         2.311359        -2.120703
 H         4.185052         1.832743        -1.450089
 H         2.275953        -0.259009        -1.961744
