19
Iteration:  1435charge 0 multiplicity 1
 C         0.028599         0.384296         0.086627
 C         1.443401         0.095707        -0.033704
 O         1.850755        -1.260780         0.043132
 C         3.083825        -0.542910         0.024171
 C         2.485944         0.471994         1.071590
 C         2.902866         1.963634         1.166472
 O         2.814972         2.653556        -0.085070
 C         3.078705         1.739041        -1.148474
 C         2.431273         0.414984        -1.110569
 H        -0.354540         0.145266         0.997754
 H        -0.088932         1.506236        -0.198617
 H        -0.383762        -0.190929        -0.683221
 H         4.011573        -1.085918        -0.036314
 H         2.315066        -0.022656         2.007718
 H         2.269935         2.529354         1.995436
 H         4.022564         2.110829         1.444658
 H         2.828619         2.254062        -2.116059
 H         4.154182         1.691819        -1.383158
 H         2.361369         0.008444        -2.123428
