19
Iteration:   790
 C        -0.156558         0.459920        -0.082563
 C         1.413791         0.100139         0.013910
 O         1.870635        -1.292372         0.124895
 C         3.132083        -0.542881        -0.004612
 C         2.597727         0.361870         1.139391
 C         3.034962         1.964316         1.167242
 O         2.830542         2.692010        -0.035594
 C         2.941151         1.825774        -1.293421
 C         2.525759         0.394537        -1.014940
 H        -0.737326        -0.004070         0.728543
 H        -0.256603         1.633852        -0.146757
 H        -0.476406        -0.050880        -1.086629
 H         4.115549        -1.185445        -0.030844
 H         2.418660        -0.065407         2.152468
 H         2.299024         2.475923         1.814570
 H         4.113372         1.863428         1.573340
 H         2.257054         2.102445        -2.019905
 H         3.982439         1.843437        -1.635892
 H         2.448890        -0.215745        -1.965068
