19
Iteration:  4649
 C         0.061021         0.427990        -0.114588
 C         1.420486         0.087963         0.141742
 O         1.779644        -1.265630         0.187416
 C         3.128864        -0.457949         0.072987
 C         2.521749         0.524999         1.119933
 C         3.055031         1.911649         1.142891
 O         2.682469         2.558381        -0.155931
 C         2.959043         1.791132        -1.281044
 C         2.557597         0.353663        -1.070276
 H        -0.497186         0.372328         0.869950
 H        -0.093063         1.678701        -0.313368
 H        -0.280330        -0.071480        -1.034717
 H         3.973933        -1.206853         0.254529
 H         2.604802         0.012115         2.063341
 H         2.648142         2.554783         1.925779
 H         4.308563         1.961659         1.047326
 H         2.233539         2.212444        -1.976187
 H         3.949461         1.948653        -1.585832
 H         2.551048        -0.271054        -1.981647
