19
Iteration:   699
 C         0.049691         0.415601         0.079891
 C         1.437624         0.191720        -0.049455
 O         1.778525        -1.297583         0.024619
 C         3.143832        -0.533050         0.093622
 C         2.492199         0.486187         1.068924
 C         2.974742         1.926630         1.122301
 O         2.692608         2.624283        -0.039066
 C         3.138703         1.780991        -1.237011
 C         2.506779         0.388039        -1.086059
 H        -0.441570        -0.052756         1.031442
 H        -0.258469         1.396272         0.078575
 H        -0.513219        -0.144701        -0.818737
 H         4.007564        -1.088770         0.147908
 H         2.330621        -0.049889         1.953988
 H         2.422991         2.487319         1.879539
 H         4.108187         1.933644         1.307213
 H         2.514489         2.418330        -1.900676
 H         4.193524         1.803012        -1.503063
 H         2.417620        -0.248730        -1.946348
