19
Iteration:   122charge 0 multiplicity 1
 C        -0.087404         0.458795        -0.115754
 C         1.411126         0.081649         0.045756
 O         1.826435        -1.319619         0.134042
 C         3.067692        -0.570817         0.021738
 C         2.702981         0.479106         1.070680
 C         3.087686         1.968458         1.152943
 O         2.752373         2.621783        -0.071844
 C         2.990995         1.785221        -1.157069
 C         2.450102         0.415320        -1.043452
 H        -0.753459        -0.110420         0.476436
 H        -0.172804         1.502760         0.002736
 H        -0.399133         0.353927        -1.221879
 H         4.009311        -1.309534        -0.091978
 H         2.483749         0.076436         2.128134
 H         2.498219         2.457791         2.021318
 H         4.145265         2.235435         1.380067
 H         2.291509         2.300814        -1.945864
 H         4.077775         1.762159        -1.395294
 H         2.326717         0.031265        -2.133470
