19
Iteration:  4406
 C        -0.035580         0.445659         0.109354
 C         1.421560         0.165210        -0.031630
 O         1.802832        -1.337723         0.087241
 C         3.167119        -0.574521         0.144954
 C         2.494617         0.506509         1.068401
 C         2.936745         1.972272         1.079936
 O         2.785365         2.649813        -0.169925
 C         3.059600         1.789259        -1.276026
 C         2.548210         0.323495        -1.022904
 H        -0.388251        -0.090297         0.979056
 H        -0.289131         1.451967        -0.007577
 H        -0.658496         0.082748        -0.689860
 H         4.080685        -1.081747         0.398441
 H         2.372571         0.102416         2.110400
 H         2.456116         2.569564         1.790792
 H         4.102473         2.095165         1.451887
 H         2.461936         2.157163        -2.092815
 H         4.115280         2.009863        -1.633017
 H         2.473221        -0.274736        -1.946110
