19
Iteration:  3487charge 0 multiplicity 1
 C        -0.069336         0.406874         0.099492
 C         1.397174         0.135055         0.073428
 O         1.846134        -1.256609         0.083172
 C         3.085036        -0.549159         0.106509
 C         2.515815         0.475017         1.108570
 C         3.005695         1.980325         1.125613
 O         2.718873         2.600472        -0.190135
 C         3.122049         1.795666        -1.314335
 C         2.589711         0.344134        -1.067172
 H        -0.609568         0.013656         0.994446
 H        -0.258228         1.407551        -0.061223
 H        -0.560040        -0.033589        -0.828292
 H         4.095184        -1.105981         0.301603
 H         2.336128         0.170654         2.117839
 H         2.282193         2.614567         1.690067
 H         4.160051         2.160798         1.449265
 H         2.505408         2.267870        -2.113362
 H         4.164082         1.855124        -1.596476
 H         2.337351        -0.356584        -1.922482
