19
Iteration:  2257
 C        -0.166063         0.341366        -0.066646
 C         1.387348         0.154285         0.060924
 O         1.877287        -1.317509         0.154169
 C         3.072901        -0.513806        -0.031575
 C         2.541632         0.468122         1.075281
 C         2.974066         1.929399         1.109685
 O         2.805129         2.631804        -0.101106
 C         3.132111         1.804295        -1.197899
 C         2.503704         0.493750        -1.004422
 H        -0.634762         0.018009         0.816670
 H        -0.486897         1.415647        -0.042181
 H        -0.469517        -0.282473        -0.894865
 H         4.032444        -1.058341        -0.265149
 H         2.547463         0.031026         2.073647
 H         2.404606         2.438843         1.829697
 H         4.090662         1.977868         1.524835
 H         2.853919         2.183249        -2.113568
 H         4.258884         1.746545        -1.279401
 H         2.380602        -0.073449        -1.933031
