19
Iteration:   250charge 0 multiplicity 1
 C        -0.103504         0.493143        -0.043226
 C         1.431792         0.151369         0.038429
 O         1.906950        -1.339598         0.068928
 C         3.137075        -0.443866         0.018313
 C         2.553761         0.500317         1.082998
 C         3.010759         1.930550         1.138235
 O         2.832745         2.541880        -0.050163
 C         3.010916         1.763022        -1.164629
 C         2.365598         0.374276        -1.081836
 H        -0.576928         0.079693         0.848720
 H        -0.220656         1.644253        -0.154576
 H        -0.355067        -0.105855        -0.922102
 H         4.095006        -0.880496         0.041982
 H         2.357865         0.128767         2.077743
 H         2.387769         2.384165         1.911728
 H         4.053312         1.869531         1.510858
 H         2.593468         2.292158        -1.968684
 H         4.042939         1.579533        -1.503310
 H         2.158804         0.094076        -2.092911
