19
Iteration:   729
 C        -0.131782         0.470148         0.157112
 C         1.350798         0.110035         0.002176
 O         1.895492        -1.370189        -0.020397
 C         3.116913        -0.501169         0.097517
 C         2.470860         0.470530         1.041981
 C         3.007455         1.902797         1.056294
 O         2.685964         2.592650        -0.061607
 C         3.167907         1.819624        -1.209666
 C         2.600137         0.428794        -1.097590
 H        -0.548090         0.368585         1.133759
 H        -0.376500         1.578585        -0.091057
 H        -0.730541        -0.057793        -0.516741
 H         4.088597        -1.058114         0.243612
 H         2.329285         0.022953         2.121400
 H         2.442668         2.532548         1.808027
 H         4.061286         1.986184         1.368926
 H         2.739987         2.534630        -2.031833
 H         4.258580         1.862748        -1.377471
 H         2.687102        -0.193905        -2.019096
