19
Iteration:  1882
 C        -0.025313         0.485919        -0.062151
 C         1.449945         0.142234        -0.046127
 O         1.924930        -1.334389         0.070012
 C         3.086291        -0.515380         0.211518
 C         2.407644         0.453883         1.156030
 C         3.018572         1.837258         1.131818
 O         2.812224         2.618584        -0.090902
 C         2.897298         1.842328        -1.311966
 C         2.572350         0.420147        -1.060862
 H        -0.408311        -0.010030         0.807015
 H        -0.114064         1.554270         0.268211
 H        -0.506910         0.168533        -0.957771
 H         4.117894        -1.111306         0.359723
 H         2.245452         0.056560         2.137577
 H         2.618253         2.459762         1.876250
 H         4.157371         1.770064         1.296768
 H         2.239559         2.318911        -1.989002
 H         3.858468         1.996268        -1.815269
 H         2.364498        -0.196983        -1.961786
