19
Iteration:  1374charge 0 multiplicity 1
 C         0.048592         0.420197         0.015482
 C         1.432404         0.169575        -0.071295
 O         1.812976        -1.334911        -0.005288
 C         3.045251        -0.547775         0.140727
 C         2.488331         0.490126         1.108463
 C         3.054508         1.951414         1.141142
 O         2.745303         2.658688        -0.047181
 C         2.999389         1.777298        -1.189616
 C         2.531230         0.381800        -1.086708
 H        -0.408790         0.021310         1.073223
 H        -0.231337         1.466274        -0.127576
 H        -0.537331        -0.163419        -0.873598
 H         4.174022        -0.948810         0.188915
 H         2.342615         0.087636         2.159739
 H         2.609824         2.496941         1.953485
 H         4.154303         1.868209         1.277533
 H         2.444291         2.250115        -2.060000
 H         4.062227         1.896946        -1.575989
 H         2.502902        -0.314382        -1.968611
