19
Iteration:  3910
 C        -0.110889         0.400618        -0.094137
 C         1.370649         0.253402         0.034088
 O         1.878970        -1.322481         0.167484
 C         3.103778        -0.511407         0.091360
 C         2.585247         0.509570         1.156603
 C         3.070799         1.935821         1.096802
 O         2.757012         2.596309        -0.158736
 C         3.048314         1.765657        -1.257797
 C         2.510138         0.341862        -1.005724
 H        -0.569066         0.091550         0.861402
 H        -0.464600         1.374262        -0.263140
 H        -0.627487        -0.272768        -0.811279
 H         4.054213        -0.971379        -0.004470
 H         2.186842         0.222325         2.197970
 H         2.509656         2.626894         1.889636
 H         4.247218         1.978298         1.278781
 H         2.406622         2.217815        -2.001339
 H         4.036067         1.790871        -1.684639
 H         2.358057        -0.234431        -1.946636
