19
Iteration:  3820charge 0 multiplicity 1
 C         0.039190         0.413734         0.008292
 C         1.495783         0.183365         0.037385
 O         1.842543        -1.264220         0.191419
 C         3.062042        -0.548059         0.080156
 C         2.553003         0.467945         1.122797
 C         2.923535         1.940490         1.082985
 O         2.721513         2.641471        -0.214192
 C         3.087099         1.757189        -1.185426
 C         2.441136         0.336472        -1.098462
 H        -0.486592        -0.139676         0.750114
 H         0.033150         1.579809         0.124462
 H        -0.353788         0.177914        -0.925498
 H         4.012199        -1.124339         0.073459
 H         2.255821        -0.037297         2.037661
 H         2.417172         2.585281         1.858109
 H         4.039913         2.074859         1.292476
 H         2.683521         2.135086        -2.134453
 H         4.116725         1.775994        -1.333074
 H         2.278100        -0.125324        -2.042789
