19
Iteration:  4686
 C        -0.054821         0.559075        -0.073854
 C         1.387419         0.166917         0.054363
 O         1.939067        -1.393978         0.170829
 C         3.110376        -0.510714         0.064838
 C         2.565778         0.524942         1.036494
 C         2.986936         1.963448         1.135816
 O         2.692272         2.635879        -0.144396
 C         2.999007         1.730528        -1.221492
 C         2.496830         0.295732        -1.021311
 H        -0.482859         0.310130         0.901991
 H        -0.172614         1.627025        -0.426233
 H        -0.648320        -0.151566        -0.718060
 H         4.104561        -0.944851         0.144818
 H         2.462514         0.111689         2.081911
 H         2.659330         2.560585         1.982097
 H         4.218579         1.814930         1.298913
 H         2.563820         2.145303        -2.187764
 H         4.089471         1.561598        -1.265278
 H         2.447618        -0.114576        -2.024652
