19
Iteration:  1544charge 0 multiplicity 1
 C        -0.051769         0.419796        -0.027344
 C         1.432378         0.174492        -0.024542
 O         1.857581        -1.287093         0.096227
 C         3.127476        -0.478337         0.058200
 C         2.488911         0.446520         1.131095
 C         3.077026         1.875540         1.174874
 O         2.703613         2.551924        -0.082759
 C         3.002239         1.834562        -1.235876
 C         2.543292         0.393500        -1.120441
 H        -0.577661         0.127464         0.842045
 H        -0.184232         1.649006        -0.001638
 H        -0.535444        -0.019488        -0.875513
 H         4.123036        -0.946560         0.278280
 H         2.245299        -0.009350         2.077760
 H         2.616057         2.475837         2.073528
 H         4.112858         1.976711         1.345085
 H         2.509214         2.352680        -2.101649
 H         4.050601         1.757536        -1.290837
 H         2.470213        -0.046649        -2.128412
