19
Iteration:  3630charge 0 multiplicity 1
 C        -0.060811         0.449936         0.000025
 C         1.493479         0.165017         0.082761
 O         1.824915        -1.305332         0.156571
 C         3.112512        -0.513316         0.043325
 C         2.553709         0.531237         1.152721
 C         3.016899         1.991410         1.080217
 O         2.680009         2.574928        -0.158988
 C         3.050361         1.698469        -1.258778
 C         2.505188         0.345497        -1.038606
 H        -0.759820        -0.212669         0.649589
 H        -0.237257         1.510190         0.160927
 H        -0.371034         0.296408        -1.145335
 H         4.293790        -0.849637        -0.057414
 H         2.292151         0.065516         2.069755
 H         2.628708         2.525677         1.970785
 H         4.165583         2.133958         1.270066
 H         2.590644         2.116762        -2.222148
 H         4.205489         1.763206        -1.449467
 H         2.297806        -0.133783        -2.035498
