19
Iteration:   714
 C        -0.044245         0.414309         0.135851
 C         1.438375         0.121326        -0.014317
 O         1.833029        -1.276580         0.006578
 C         3.075320        -0.535820         0.052212
 C         2.416245         0.431345         1.103190
 C         2.975216         1.891793         1.141684
 O         2.708645         2.655981        -0.142235
 C         3.085800         1.867816        -1.216682
 C         2.659444         0.379634        -1.083363
 H        -0.180133         0.118030         1.164683
 H        -0.114193         1.534856         0.000600
 H        -0.707080        -0.160898        -0.563506
 H         4.042641        -1.157010         0.095156
 H         2.100278         0.066446         2.102561
 H         2.610659         2.441928         2.050977
 H         4.059901         1.821121         1.253319
 H         2.759367         2.143966        -2.162961
 H         4.234557         1.849421        -1.189724
 H         2.493442        -0.019261        -2.103028
