19
Iteration:   991charge 0 multiplicity 1
 C         0.022002         0.399369        -0.177921
 C         1.427099         0.086159         0.063315
 O         1.858677        -1.300016         0.181282
 C         3.089846        -0.505753         0.008782
 C         2.506834         0.500695         1.132889
 C         3.100011         1.919145         1.137792
 O         2.753569         2.610329        -0.027431
 C         3.031552         1.898069        -1.214452
 C         2.338618         0.383284        -1.084364
 H        -0.721576        -0.168389         0.570004
 H        -0.164088         1.461412        -0.132454
 H        -0.193980         0.182230        -1.255036
 H         4.069579        -1.001366         0.072672
 H         2.358901         0.022956         2.049785
 H         3.019182         2.456393         2.050898
 H         4.169838         1.724677         1.108457
 H         2.555888         2.335023        -1.957896
 H         4.099801         1.487529        -1.457759
 H         2.060419        -0.082705        -1.986842
