19
Iteration:  2404charge 0 multiplicity 1
 C         0.020693         0.363175        -0.045400
 C         1.433626         0.171534        -0.014175
 O         1.893258        -1.234475         0.068553
 C         3.077671        -0.502261         0.136810
 C         2.405411         0.451052         1.139700
 C         3.060146         1.859299         1.104894
 O         2.726973         2.690356        -0.082396
 C         2.992079         1.807002        -1.213475
 C         2.536337         0.366334        -1.056300
 H        -0.401954         0.087569         0.986562
 H        -0.216751         1.430934        -0.153188
 H        -0.367797        -0.147213        -0.942893
 H         4.034136        -1.121520         0.176062
 H         2.105451        -0.107389         2.048649
 H         2.858191         2.423936         1.984293
 H         4.137476         1.521977         0.881248
 H         2.384069         2.316409        -1.950935
 H         4.143540         1.701279        -1.473850
 H         2.331684        -0.034727        -2.048779
