19
Iteration:  4348
 C        -0.103985         0.345014         0.005506
 C         1.378073         0.146424         0.033055
 O         1.900862        -1.255394         0.162623
 C         3.074852        -0.449914        -0.004612
 C         2.499772         0.470224         1.091191
 C         3.013487         1.966846         1.166419
 O         2.848849         2.642666        -0.173567
 C         3.098846         1.744341        -1.217788
 C         2.409263         0.328037        -1.073926
 H        -0.616419         0.140738         0.969747
 H        -0.202906         1.362125         0.079991
 H        -0.542507        -0.282911        -0.840428
 H         4.017356        -0.896101         0.067298
 H         2.485434         0.200402         2.146662
 H         2.201072         2.535553         1.698808
 H         4.163778         2.091008         1.459319
 H         2.687687         2.172381        -2.165868
 H         4.231994         1.661414        -1.310425
 H         2.382072        -0.239409        -2.021846
