19
Iteration:  4399
 C        -0.092349         0.447177         0.125351
 C         1.432189         0.124475        -0.058114
 O         1.784829        -1.334359         0.099652
 C         3.141345        -0.534199         0.173591
 C         2.517713         0.437457         1.079736
 C         2.944516         1.995940         1.081872
 O         2.805178         2.661865        -0.161013
 C         3.047961         1.781275        -1.299987
 C         2.596073         0.342769        -1.040760
 H        -0.542857        -0.037614         0.988771
 H        -0.339047         1.598170         0.191810
 H        -0.574180        -0.117986        -0.691103
 H         4.199877        -1.023972         0.194482
 H         2.486526         0.203664         2.112725
 H         2.289570         2.603939         1.782734
 H         3.946739         2.018132         1.361926
 H         2.588937         2.316907        -2.184742
 H         4.067841         1.777196        -1.608683
 H         2.631735        -0.167922        -2.001296
