19
Iteration:  4211charge 0 multiplicity 1
 C        -0.040993         0.439471         0.124486
 C         1.414567         0.199354         0.037333
 O         1.855689        -1.270110         0.131823
 C         3.126495        -0.462010         0.063650
 C         2.461111         0.441412         1.073978
 C         2.950664         1.961416         1.070559
 O         2.714251         2.570673        -0.145636
 C         3.120678         1.735922        -1.261114
 C         2.613458         0.328497        -1.094679
 H        -0.611242         0.106032         1.017754
 H        -0.162929         1.604197         0.077554
 H        -0.526827         0.001761        -0.735790
 H         4.091908        -1.109962         0.180090
 H         2.047429         0.055412         2.018465
 H         2.253883         2.628384         1.731359
 H         4.019126         1.911230         1.168181
 H         2.774319         2.325870        -2.195978
 H         4.123828         1.830513        -1.379267
 H         2.366687        -0.341163        -1.924765
