19
Iteration:  1757
 C        -0.066219         0.544542         0.088392
 C         1.432671         0.055103        -0.020933
 O         1.860696        -1.313114         0.040061
 C         3.147673        -0.517643         0.057064
 C         2.524451         0.453347         1.111690
 C         2.908306         1.881130         1.166170
 O         2.762299         2.605587        -0.110897
 C         3.070911         1.806961        -1.281938
 C         2.536288         0.412369        -1.087586
 H        -0.416994         0.303889         1.175994
 H        -0.100005         1.502050        -0.146364
 H        -0.634059        -0.189300        -0.585568
 H         4.065346        -1.044653         0.072813
 H         2.282248        -0.010066         2.114382
 H         2.165692         2.438161         1.817238
 H         3.830386         2.216967         1.683901
 H         2.643598         2.332453        -2.195135
 H         4.205888         1.775417        -1.234439
 H         2.587027        -0.085868        -2.062281
