19
Iteration:  2348charge 0 multiplicity 1
 C         0.068743         0.464729        -0.113514
 C         1.472924         0.197228         0.101683
 O         1.839651        -1.350427         0.115265
 C         3.115680        -0.533705         0.037796
 C         2.510020         0.490304         1.069766
 C         3.014950         1.950481         1.114831
 O         2.703029         2.628841        -0.038664
 C         2.955010         1.790510        -1.210977
 C         2.502215         0.322352        -1.080109
 H        -0.645439        -0.042358         0.659153
 H        -0.100119         1.508986        -0.006438
 H        -0.238750        -0.000849        -1.088735
 H         4.169444        -1.072667         0.081206
 H         2.274184        -0.020886         2.040100
 H         2.519395         2.379102         1.921539
 H         4.115139         2.041389         1.533673
 H         2.643028         2.400903        -1.993820
 H         4.063454         1.737742        -1.500808
 H         2.085302        -0.018382        -1.994534
