19
Iteration:   165charge 0 multiplicity 1
 C        -0.024993         0.452069         0.047444
 C         1.374841         0.160620        -0.032614
 O         1.875636        -1.260103         0.040000
 C         3.119750        -0.473032         0.107890
 C         2.450616         0.495162         1.103066
 C         3.035508         1.818269         1.080592
 O         2.746423         2.518095        -0.064706
 C         3.042176         1.813559        -1.241846
 C         2.546123         0.409166        -1.029231
 H        -0.543224         0.048788         0.897998
 H        -0.220719         1.533061         0.095353
 H        -0.662306         0.080035        -0.846845
 H         4.155667        -0.993329         0.123761
 H         2.288831         0.035012         2.087165
 H         2.596631         2.594086         1.793501
 H         4.133362         1.856609         1.304828
 H         2.435753         2.410536        -2.028346
 H         4.151707         1.827571        -1.518585
 H         2.428155        -0.082692        -2.029613
