19
Iteration:  3329charge 0 multiplicity 1
 C        -0.140358         0.392405         0.021728
 C         1.407434         0.136363         0.036717
 O         1.876393        -1.273144         0.153488
 C         3.133688        -0.531405         0.074104
 C         2.563214         0.486031         1.074982
 C         2.952604         1.984776         1.101074
 O         2.854073         2.640492        -0.133784
 C         3.026307         1.778376        -1.238425
 C         2.513240         0.348552        -1.104568
 H        -0.619639         0.329265         1.015715
 H        -0.411173         1.374895        -0.451179
 H        -0.612373        -0.417347        -0.566706
 H         4.095622        -1.217594         0.035032
 H         2.491867         0.055095         2.106970
 H         2.313945         2.514893         1.822496
 H         3.847576         2.047769         1.531938
 H         2.581030         2.373872        -2.037566
 H         4.130438         1.697040        -1.457006
 H         2.273109        -0.222237        -1.994982
