19
Iteration:  4747
 C        -0.100764         0.361038         0.078199
 C         1.414271         0.087169         0.009686
 O         1.844423        -1.281216         0.117519
 C         3.051585        -0.517111         0.061495
 C         2.521180         0.543824         1.100451
 C         2.938593         2.042325         1.175884
 O         2.851617         2.648433        -0.213245
 C         3.078880         1.714073        -1.247782
 C         2.539498         0.348919        -1.113357
 H        -0.440406        -0.168697         0.967029
 H        -0.233781         1.389163         0.477768
 H        -0.557552         0.048655        -0.814365
 H         4.026218        -1.039223         0.276572
 H         2.364098         0.098177         2.061768
 H         2.226240         2.723568         1.719295
 H         3.954615         2.050875         1.622317
 H         2.773171         2.195855        -2.136108
 H         4.220073         1.704630        -1.521542
 H         2.457749        -0.288197        -1.995032
