19
Iteration:  2394charge 0 multiplicity 1
 C        -0.027763         0.401298        -0.079241
 C         1.427944         0.162615         0.003459
 O         1.864700        -1.285966         0.046222
 C         3.098618        -0.484889         0.126339
 C         2.461647         0.558801         1.072325
 C         3.156786         1.882420         1.142724
 O         2.656740         2.593250        -0.042263
 C         3.007533         1.794145        -1.198916
 C         2.499194         0.358756        -1.051106
 H        -0.655666        -0.069848         0.757014
 H        -0.270263         1.490040        -0.115405
 H        -0.375202        -0.214185        -0.919920
 H         4.054170        -1.012033         0.156341
 H         2.230809         0.140175         2.060139
 H         3.022808         2.496180         2.068417
 H         4.314669         1.778733         1.250458
 H         2.542641         2.302763        -2.124110
 H         4.088801         1.941369        -1.514282
 H         2.455709        -0.294162        -1.959461
