19
Iteration:  3068
 C        -0.006026         0.393236         0.009280
 C         1.455676         0.175898         0.026449
 O         1.813121        -1.294117         0.094222
 C         3.161510        -0.483571         0.165713
 C         2.435190         0.487074         1.143722
 C         3.106015         1.915974         1.057181
 O         2.698154         2.583744        -0.171586
 C         3.030371         1.808259        -1.278380
 C         2.492640         0.382690        -1.042257
 H        -0.395289        -0.338568         0.755570
 H        -0.265884         1.519363         0.288597
 H        -0.450570         0.131926        -0.979948
 H         4.081162        -1.086604         0.224544
 H         2.324306        -0.043371         2.117252
 H         2.533652         2.541750         1.848984
 H         4.097252         2.151616         1.375467
 H         2.548392         2.310806        -2.111540
 H         4.143276         1.881806        -1.499026
 H         2.340838        -0.305839        -1.857798
