19
Iteration:  2090charge 0 multiplicity 1
 C        -0.127301         0.354562         0.059578
 C         1.349599         0.163855        -0.099361
 O         1.878636        -1.306721         0.023747
 C         3.112751        -0.492317         0.093833
 C         2.457588         0.486767         1.119952
 C         2.973774         1.939295         1.144930
 O         2.809325         2.593550        -0.096018
 C         3.072313         1.806422        -1.237016
 C         2.613961         0.435412        -1.068698
 H        -0.431502         0.002508         1.059813
 H        -0.406801         1.516337         0.274010
 H        -0.757245        -0.271505        -0.557003
 H         4.101012        -1.038349         0.270905
 H         2.206704         0.108215         2.109170
 H         2.670130         2.653804         1.913080
 H         4.005639         1.758765         1.454741
 H         2.781687         2.301322        -2.154770
 H         4.169645         1.764218        -1.409933
 H         2.466856        -0.160041        -2.062622
