19
Iteration:  1110
 C         0.007765         0.452336         0.008950
 C         1.430592         0.123306         0.009118
 O         1.837171        -1.204489         0.105311
 C         3.105848        -0.540041         0.016886
 C         2.522898         0.409108         1.086990
 C         2.972681         1.886694         1.176763
 O         2.750813         2.596958        -0.074096
 C         3.077155         1.844707        -1.241397
 C         2.475568         0.406817        -1.090972
 H        -0.498265        -0.110036         0.810388
 H        -0.272155         1.434433        -0.068730
 H        -0.260767        -0.055820        -0.899254
 H         4.076759        -1.156822        -0.047833
 H         2.201095         0.008594         2.021721
 H         2.344610         2.234351         1.936912
 H         4.047975         2.024681         1.483174
 H         2.638769         2.284710        -2.122479
 H         4.157966         1.786167        -1.364142
 H         2.290985        -0.168312        -1.936444
