19
Iteration:  2108charge 0 multiplicity 1
 C        -0.104555         0.364231         0.077607
 C         1.377984         0.120042        -0.004576
 O         1.825279        -1.316450        -0.037268
 C         3.073567        -0.513704         0.086632
 C         2.508050         0.507717         1.101160
 C         3.071764         1.979707         1.108942
 O         2.712852         2.651125        -0.103181
 C         3.170525         1.817515        -1.155873
 C         2.537425         0.344363        -1.066886
 H        -0.441121        -0.141186         1.030632
 H        -0.242274         1.311115        -0.214400
 H        -0.624064        -0.230041        -0.691169
 H         3.977623        -1.069805         0.108005
 H         2.164296         0.125931         2.113471
 H         2.554589         2.607007         1.982039
 H         4.122761         2.242706         1.457156
 H         2.804859         2.293543        -2.153835
 H         4.274657         1.798601        -1.216564
 H         2.423484        -0.178771        -2.029962
