19
Iteration:  3543charge 0 multiplicity 1
 C        -0.079696         0.397434        -0.009904
 C         1.415285         0.120407         0.061166
 O         1.865566        -1.306650         0.151627
 C         3.127281        -0.533050         0.027991
 C         2.463199         0.528836         1.147822
 C         2.982349         1.952739         1.095377
 O         2.820710         2.652369        -0.150355
 C         3.032115         1.764275        -1.267277
 C         2.524954         0.385497        -1.049850
 H        -0.519810         0.398834         1.008711
 H        -0.281636         1.302740        -0.415043
 H        -0.578435        -0.477946        -0.537744
 H         4.127936        -1.092180         0.004315
 H         2.416193         0.225888         2.182483
 H         2.628569         2.673799         1.844914
 H         4.023734         1.938700         1.437185
 H         2.536181         2.207890        -2.174182
 H         4.053543         1.616215        -1.522574
 H         2.274066        -0.165666        -2.003999
