19
Iteration:  1125
 C        -0.101158         0.403607        -0.020190
 C         1.438339         0.220416        -0.005152
 O         1.813027        -1.336701         0.059688
 C         3.098406        -0.503891         0.079008
 C         2.516688         0.497789         1.096294
 C         3.045009         1.872607         1.137974
 O         2.717234         2.582699        -0.044359
 C         3.041120         1.835517        -1.231158
 C         2.632167         0.378676        -1.099797
 H        -0.565258        -0.089947         0.957183
 H        -0.176816         1.539556         0.120463
 H        -0.756585         0.159463        -0.966383
 H         3.997223        -1.108773         0.220141
 H         2.443705        -0.028215         2.078873
 H         2.662353         2.613236         1.946041
 H         4.159212         1.862211         1.413749
 H         2.399631         2.408829        -1.922858
 H         4.057560         1.871163        -1.506223
 H         2.492016        -0.071901        -2.163950
