19
Iteration:   919charge 0 multiplicity 1
 C        -0.037357         0.548982         0.146980
 C         1.403956         0.068069        -0.035827
 O         1.897040        -1.323998         0.016030
 C         3.136611        -0.517561         0.107038
 C         2.456854         0.442855         1.040887
 C         2.919575         1.924119         1.097049
 O         2.726838         2.602830        -0.095150
 C         3.076941         1.793347        -1.195451
 C         2.619482         0.393969        -1.116427
 H        -0.305379         0.356386         1.171205
 H        -0.141790         1.603372        -0.078224
 H        -0.802216         0.044246        -0.521602
 H         4.075641        -1.121011         0.120193
 H         2.224309        -0.012330         2.045733
 H         2.373891         2.463332         1.911495
 H         3.936555         1.894283         1.557445
 H         2.547218         2.436390        -2.085663
 H         4.165111         1.777585        -1.455319
 H         2.279848        -0.200815        -2.028932
