19
Iteration:  2269charge 0 multiplicity 1
 C        -0.081310         0.371756         0.033739
 C         1.389523         0.117719         0.057036
 O         1.815645        -1.325184         0.050273
 C         3.123504        -0.460921         0.032508
 C         2.546732         0.514657         1.055501
 C         2.918171         1.972773         1.160983
 O         2.837408         2.681804        -0.097132
 C         3.120895         1.798165        -1.166993
 C         2.469981         0.319050        -1.116701
 H        -0.515969        -0.126838         0.897755
 H        -0.452824         1.327486        -0.327496
 H        -0.423168        -0.253627        -0.820581
 H         4.095722        -1.102639         0.192572
 H         2.482936         0.051589         2.056986
 H         2.379853         2.482034         1.859641
 H         4.079423         1.992831         1.418130
 H         2.788287         2.380983        -1.934028
 H         4.218097         1.555297        -1.257451
 H         2.293077        -0.055182        -2.102190
