19
Iteration:  2978
 C        -0.068354         0.428272        -0.004955
 C         1.397189         0.182862        -0.001818
 O         1.892755        -1.263422         0.133392
 C         3.100660        -0.477144         0.051894
 C         2.592010         0.441533         1.153632
 C         3.005243         1.918169         1.130752
 O         2.666742         2.598271        -0.130212
 C         3.103644         1.789923        -1.284023
 C         2.481522         0.385045        -1.045027
 H        -0.561402         0.262238         1.042990
 H        -0.381946         1.393945        -0.375380
 H        -0.639105        -0.368311        -0.680443
 H         4.006710        -1.159598         0.038486
 H         2.638388         0.007378         2.145786
 H         2.512595         2.524411         1.861636
 H         4.045195         1.909633         1.463648
 H         2.735826         2.252307        -2.120425
 H         4.131287         1.547918        -1.582866
 H         2.460361        -0.194966        -1.941618
