19
Iteration:  1049
 C         0.047553         0.452147         0.116580
 C         1.424940         0.109452        -0.058645
 O         1.866423        -1.287012         0.043479
 C         3.049555        -0.457136         0.064744
 C         2.399126         0.474246         1.051041
 C         2.921525         1.863970         1.153840
 O         2.808269         2.594192        -0.069386
 C         3.109971         1.801778        -1.223065
 C         2.534698         0.408740        -1.082442
 H        -0.374501         0.110993         1.097734
 H        -0.265288         1.483619        -0.024487
 H        -0.427483        -0.260057        -0.663813
 H         4.000590        -0.908847         0.200387
 H         2.118577        -0.061175         1.998129
 H         2.341032         2.521389         1.851919
 H         3.987338         1.845145         1.366485
 H         2.544584         2.518832        -1.884559
 H         4.130781         1.788529        -1.830386
 H         2.547859        -0.240007        -2.055259
