19
Iteration:  3228
 C         0.004482         0.487555        -0.012844
 C         1.483968         0.160062         0.053885
 O         1.819172        -1.322247         0.123463
 C         3.068099        -0.507739         0.039328
 C         2.526781         0.514423         1.118372
 C         3.040329         2.054793         1.059065
 O         2.687991         2.614768        -0.129885
 C         3.003498         1.723890        -1.177849
 C         2.545044         0.275054        -1.085862
 H        -0.396010        -0.284604         0.752825
 H        -0.402780         1.431814         0.157446
 H        -0.482548         0.096000        -0.978790
 H         4.072222        -1.031895         0.258140
 H         2.401022        -0.079417         2.039676
 H         2.614507         2.599813         1.979025
 H         4.196122         2.034667         1.268169
 H         2.496011         2.210463        -2.096053
 H         4.129500         1.751971        -1.273199
 H         2.432187        -0.351219        -2.027219
