19
Iteration:  4475
 C         0.084510         0.430546        -0.108272
 C         1.496200         0.137102         0.071019
 O         1.770290        -1.332022         0.186644
 C         3.104486        -0.507062         0.100768
 C         2.547951         0.474255         1.102845
 C         3.061619         1.979312         1.115036
 O         2.677154         2.639902        -0.138737
 C         2.961148         1.800390        -1.229060
 C         2.480301         0.303702        -1.057298
 H        -0.355818         0.102267         0.788466
 H        -0.069728         1.507677        -0.429086
 H        -0.434507        -0.084259        -0.853788
 H         4.035389        -1.192759         0.197897
 H         2.250258         0.097387         2.066157
 H         2.803224         2.662109         1.943799
 H         4.300739         2.041596         1.157990
 H         2.508598         2.394107        -2.063043
 H         4.053139         1.893537        -1.627396
 H         2.154084        -0.217867        -1.974639
