19
Iteration:  3320charge 0 multiplicity 1
 C        -0.155182         0.380854         0.001717
 C         1.333943         0.157249         0.121692
 O         1.859623        -1.297613         0.198322
 C         3.143445        -0.476411        -0.015299
 C         2.557409         0.475554         1.027926
 C         2.975166         1.944083         1.073053
 O         2.850012         2.661893        -0.102816
 C         3.050736         1.808150        -1.272698
 C         2.557918         0.298236        -1.055493
 H        -0.490576         0.238328         0.982548
 H        -0.310672         1.451236        -0.482491
 H        -0.487703        -0.298125        -0.695420
 H         4.119059        -1.232244         0.107323
 H         2.384968         0.138922         2.070153
 H         2.129447         2.251464         1.653012
 H         4.013210         2.167824         1.653622
 H         2.529028         2.234751        -2.090712
 H         4.199503         1.919809        -1.473841
 H         2.247736        -0.199646        -1.913266
