19
Iteration:  3247
 C        -0.048096         0.403628        -0.002939
 C         1.468668         0.117210         0.015060
 O         1.840628        -1.270878         0.191742
 C         3.117144        -0.606767         0.182066
 C         2.473243         0.496387         1.090854
 C         3.077378         1.873326         1.080312
 O         2.671175         2.639818        -0.161436
 C         3.050642         1.840206        -1.313834
 C         2.564751         0.400207        -1.082834
 H        -0.436934        -0.195358         0.858163
 H        -0.072223         1.493697         0.423960
 H        -0.593814         0.376080        -1.009213
 H         3.997437        -1.110736         0.204648
 H         2.122927         0.346365         2.102873
 H         2.414588         2.438695         1.747932
 H         4.091291         1.769272         1.172316
 H         2.553077         2.451200        -2.139321
 H         4.122094         1.914131        -1.490062
 H         2.412442        -0.128115        -2.071499
