19
Iteration:  2355
 C         0.010701         0.441846        -0.128772
 C         1.444417         0.165614         0.081959
 O         1.847275        -1.306571         0.140471
 C         3.118650        -0.545245         0.026131
 C         2.566187         0.492490         1.057565
 C         3.054371         1.887648         1.179300
 O         2.669783         2.653743        -0.047455
 C         2.990141         1.810151        -1.266894
 C         2.497534         0.343989        -1.032247
 H        -0.610017         0.057172         0.605608
 H        -0.223681         1.551440        -0.049571
 H        -0.146950         0.085271        -1.143495
 H         4.046325        -1.130823         0.037419
 H         2.376847         0.157846         2.081015
 H         2.379837         2.295310         2.003116
 H         4.128288         1.926272         1.330466
 H         2.508277         2.329145        -2.134408
 H         4.121842         1.752811        -1.330493
 H         2.205623        -0.185145        -1.979874
