19
Iteration:  3531
 C         0.009136         0.322848         0.036248
 C         1.414787         0.108864         0.078210
 O         1.890094        -1.302353         0.179668
 C         3.030890        -0.466419         0.020739
 C         2.471265         0.588915         1.123177
 C         2.992935         1.996199         1.126679
 O         2.810580         2.644419        -0.112834
 C         3.108512         1.730365        -1.291577
 C         2.411315         0.335723        -1.117663
 H        -0.473168         0.539205         1.007487
 H         0.051652         1.156471        -0.490613
 H        -0.613683        -0.257122        -0.724343
 H         3.956668        -1.165101        -0.303516
 H         2.164767         0.194153         2.062348
 H         2.360072         2.456988         1.878680
 H         4.066153         1.802810         1.214178
 H         2.790694         2.390575        -2.131094
 H         4.147885         1.741016        -1.262395
 H         2.318293        -0.177009        -2.115668
