19
Iteration:  2167charge 0 multiplicity 1
 C         0.005703         0.562400        -0.094510
 C         1.393287         0.093519         0.003323
 O         1.902254        -1.289629         0.072063
 C         3.188567        -0.493997         0.041532
 C         2.498535         0.452025         1.107191
 C         2.975071         1.939142         1.197910
 O         2.743555         2.620930        -0.050563
 C         2.934291         1.727652        -1.226937
 C         2.543065         0.304106        -1.037292
 H        -0.517719         0.288261         0.765163
 H        -0.129744         1.704514        -0.048950
 H        -0.378050         0.096621        -0.977976
 H         4.058225        -1.073373         0.265760
 H         2.405003        -0.070652         2.060196
 H         2.499132         2.635342         1.901123
 H         4.097465         1.780728         1.314118
 H         2.191761         2.061155        -1.925474
 H         3.951261         1.921351        -1.600362
 H         2.275103        -0.113959        -2.082510
