19
Iteration:  1723
 C         0.038989         0.541478        -0.067903
 C         1.453783         0.090219         0.077671
 O         1.898306        -1.369941         0.133317
 C         3.103401        -0.509115         0.031264
 C         2.536878         0.464779         1.081283
 C         3.000098         1.894856         1.151017
 O         2.722050         2.605156        -0.074672
 C         2.989313         1.825249        -1.221395
 C         2.428813         0.421636        -1.096577
 H        -0.639818         0.060153         0.696569
 H        -0.127689         1.542921        -0.077980
 H        -0.389306         0.182290        -1.054216
 H         4.041758        -0.945621         0.045838
 H         2.359945         0.046607         2.113611
 H         2.271686         2.291139         1.919120
 H         4.068376         1.915907         1.420824
 H         2.652396         2.417050        -2.138810
 H         4.135330         1.658594        -1.400799
 H         2.331778        -0.132787        -2.015406
