19
Iteration:  2382charge 0 multiplicity 1
 C        -0.124114         0.405078        -0.134448
 C         1.388331         0.146109        -0.001147
 O         1.825411        -1.325369         0.100696
 C         3.122550        -0.450185         0.073807
 C         2.567173         0.498592         1.155056
 C         3.171066         1.954064         1.118594
 O         2.669293         2.521053        -0.018352
 C         2.989133         1.835765        -1.222571
 C         2.579756         0.379809        -1.068516
 H        -0.594172         0.004144         0.863728
 H        -0.326090         1.474706        -0.182407
 H        -0.510449         0.081385        -1.123453
 H         4.152660        -0.981827         0.198740
 H         2.336540         0.119116         2.177132
 H         2.646796         2.509606         1.864459
 H         4.355401         1.953487         1.014637
 H         2.405277         2.348509        -1.997372
 H         4.168138         1.784434        -1.238227
 H         2.365390        -0.108014        -2.032547
