19
Iteration:   101charge 0 multiplicity 1
 C        -0.005554         0.459314        -0.017575
 C         1.500333         0.253259         0.041313
 O         1.785055        -1.243460         0.101786
 C         3.134952        -0.479545         0.068335
 C         2.493821         0.412377         1.117152
 C         3.042645         1.852622         1.147718
 O         2.736942         2.560670        -0.046970
 C         2.994807         1.829153        -1.323231
 C         2.515422         0.365301        -1.099129
 H        -0.372767        -0.222985         0.691313
 H        -0.316394         1.419529         0.004967
 H        -0.245586         0.059756        -1.067644
 H         4.155302        -1.115217         0.045215
 H         2.442068         0.071543         2.221963
 H         2.544349         2.364300         2.041340
 H         4.101115         1.738821         1.436199
 H         2.210552         2.314276        -2.041247
 H         4.027825         1.964554        -1.582201
 H         2.227948        -0.423505        -1.932799
