19
Iteration:  2633
 C        -0.036861         0.414225         0.099805
 C         1.455123         0.105487         0.023006
 O         1.840170        -1.308241         0.054170
 C         3.165060        -0.496045         0.092006
 C         2.465823         0.454152         1.100315
 C         2.908270         1.878076         1.040224
 O         2.743953         2.626784        -0.118156
 C         3.086905         1.857871        -1.250763
 C         2.562917         0.376514        -1.058167
 H        -0.613541         0.336075         1.065190
 H        -0.113206         1.569339         0.054169
 H        -0.624906         0.049676        -0.758152
 H         4.193256        -1.032053         0.292241
 H         2.148497         0.089017         2.089320
 H         2.350317         2.394841         1.797641
 H         3.984194         1.824598         1.317728
 H         2.675525         2.427202        -2.009678
 H         4.208894         1.943981        -1.542152
 H         2.403714        -0.234916        -1.936149
