19
Iteration:  1801
 C        -0.130206         0.370371         0.016761
 C         1.396591         0.136131        -0.068945
 O         1.855768        -1.302853         0.007738
 C         3.094769        -0.468506         0.115789
 C         2.562364         0.498872         1.103689
 C         3.062368         1.989669         1.140845
 O         2.772428         2.607731        -0.085136
 C         3.079663         1.785078        -1.175057
 C         2.480715         0.365888        -1.095202
 H        -0.517301         0.123590         1.067322
 H        -0.292277         1.298679        -0.252991
 H        -0.820768        -0.258010        -0.630319
 H         4.010888        -1.020955         0.040418
 H         2.352062         0.100891         2.132062
 H         2.431448         2.475004         1.965742
 H         4.164117         2.168066         1.490876
 H         2.727001         2.440574        -1.999414
 H         4.124806         1.545547        -1.175110
 H         2.459736        -0.328065        -1.953704
