19
Iteration:  4425charge 0 multiplicity 1
 C         0.041635         0.484468         0.033149
 C         1.456767         0.122309         0.021999
 O         1.876576        -1.272200         0.149749
 C         3.080676        -0.498992         0.091673
 C         2.438261         0.507680         1.137344
 C         3.017072         1.947307         1.107081
 O         2.717251         2.570594        -0.128374
 C         2.968925         1.713005        -1.293696
 C         2.559982         0.345405        -1.087968
 H        -0.650050         0.049005         0.856481
 H        -0.003452         1.598559        -0.063160
 H        -0.466412        -0.048581        -0.911356
 H         4.026719        -0.988580        -0.005079
 H         2.286410         0.229275         2.224483
 H         2.541657         2.661588         1.887996
 H         4.066745         1.939245         1.290000
 H         2.649824         2.311174        -2.170652
 H         4.108762         1.753418        -1.593277
 H         2.421845        -0.185719        -2.061213
