19
Iteration:  4341charge 0 multiplicity 1
 C        -0.139423         0.324229         0.013261
 C         1.340568         0.089119         0.067333
 O         1.860102        -1.254657         0.161476
 C         3.095553        -0.502975         0.036583
 C         2.528558         0.519518         1.073705
 C         3.003301         1.984240         1.115382
 O         2.826718         2.656225        -0.157040
 C         3.134150         1.769807        -1.246287
 C         2.491307         0.355833        -1.072343
 H        -0.594760         0.043120         0.965895
 H        -0.177133         1.458579        -0.212417
 H        -0.558665        -0.086278        -0.882534
 H         4.129374        -0.925391         0.027688
 H         2.572883        -0.058525         2.060955
 H         2.495075         2.556539         1.868869
 H         4.016835         2.041187         1.621403
 H         2.542408         2.235653        -2.009652
 H         4.171476         1.596775        -1.468881
 H         2.210927        -0.209897        -1.986664
