19
Iteration:  1936
 C        -0.125637         0.456154         0.022252
 C         1.439613         0.183606         0.032177
 O         1.840126        -1.312506         0.122552
 C         3.118095        -0.531402         0.021380
 C         2.639989         0.491636         1.045185
 C         2.968272         1.962506         1.160149
 O         2.679663         2.564681        -0.082680
 C         3.147540         1.762563        -1.158805
 C         2.488848         0.393651        -1.145863
 H        -0.559582         0.090040         0.968787
 H        -0.379862         1.443716        -0.455162
 H        -0.413017        -0.143120        -0.852822
 H         4.185589        -1.111123        -0.177929
 H         2.322888         0.112145         2.024279
 H         2.212103         2.329094         1.799529
 H         4.066316         2.247289         1.436560
 H         2.870821         2.411765        -1.994337
 H         4.254856         1.658278        -1.062040
 H         2.245854        -0.147276        -2.131741
