19
Iteration:   478
 C        -0.020742         0.426255        -0.078027
 C         1.416722         0.091037        -0.003994
 O         1.877049        -1.291017         0.096900
 C         3.134738        -0.456431         0.073760
 C         2.497661         0.487207         1.105619
 C         3.105544         1.899026         1.074223
 O         2.767817         2.569178        -0.041227
 C         2.961569         1.801721        -1.213070
 C         2.414523         0.418536        -0.993952
 H        -0.709733        -0.132355         0.537314
 H        -0.171273         1.625605         0.179385
 H        -0.466960         0.434865        -1.062412
 H         4.125937        -0.980967         0.004041
 H         2.143475        -0.033294         2.064429
 H         2.885085         2.457777         2.033796
 H         4.243403         1.875842         1.196247
 H         2.469836         2.429932        -2.015407
 H         4.006151         1.663377        -1.578046
 H         2.281123        -0.250418        -1.913037
