19
Iteration:  4019
 C        -0.039153         0.496471         0.037700
 C         1.387022         0.080265         0.037385
 O         1.916151        -1.275796         0.167165
 C         3.080631        -0.551136         0.059556
 C         2.525445         0.468735         1.048097
 C         2.948688         2.027639         1.078865
 O         2.709000         2.648115        -0.146856
 C         3.078298         1.707847        -1.253034
 C         2.537857         0.300692        -1.055642
 H        -0.429414         0.252031         1.090340
 H         0.093620         1.644192         0.180576
 H        -0.534951         0.080510        -0.930308
 H         4.010614        -1.039391        -0.071050
 H         2.464345         0.184047         2.175128
 H         2.172355         2.459935         1.681219
 H         4.059558         2.014156         1.540294
 H         2.709983         2.238287        -2.135983
 H         4.245317         1.546442        -1.358629
 H         2.224023        -0.153870        -2.025311
