19
Iteration:  1099charge 0 multiplicity 1
 C         0.022426         0.446789        -0.027996
 C         1.467894         0.187627         0.079264
 O         1.809340        -1.325019         0.083917
 C         3.157151        -0.475755        -0.061652
 C         2.529713         0.449813         1.104659
 C         2.922632         1.896884         1.169890
 O         2.762068         2.627068        -0.078825
 C         3.095708         1.770547        -1.203731
 C         2.426695         0.396740        -1.069612
 H        -0.459659         0.047511         0.894917
 H        -0.171410         1.475555        -0.102304
 H        -0.414892        -0.055649        -0.874979
 H         4.044929        -1.191955        -0.123665
 H         2.509259        -0.094236         2.010474
 H         2.216463         2.450594         1.736779
 H         3.894445         2.073449         1.686669
 H         2.778106         2.431928        -1.975724
 H         4.094580         1.555402        -1.350712
 H         2.144213        -0.044488        -1.965220
