19
Iteration:  1104charge 0 multiplicity 1
 C         0.032116         0.456496        -0.004510
 C         1.471187         0.155006         0.046619
 O         1.818866        -1.261587         0.098925
 C         3.157190        -0.500915        -0.039215
 C         2.501883         0.425416         1.091158
 C         2.962740         1.875999         1.153149
 O         2.746797         2.623572        -0.085520
 C         3.096252         1.807931        -1.218800
 C         2.424391         0.402303        -1.052516
 H        -0.442565        -0.136175         0.896275
 H        -0.252351         1.563485        -0.185317
 H        -0.367326        -0.109420        -0.958688
 H         3.960121        -1.201789        -0.094991
 H         2.354329        -0.116334         2.085576
 H         2.238858         2.401147         1.931582
 H         3.893988         2.110758         1.718450
 H         2.629054         2.471295        -2.006320
 H         4.247766         1.521783        -1.368010
 H         2.184867        -0.207355        -2.036282
