19
Iteration:  4791charge 0 multiplicity 1
 C        -0.164842         0.360799        -0.062330
 C         1.368435         0.147898         0.020536
 O         1.906915        -1.310443         0.165009
 C         3.112060        -0.433053         0.116104
 C         2.506950         0.546293         1.149091
 C         3.062750         2.021824         1.143598
 O         2.835093         2.618521        -0.117468
 C         3.000586         1.704742        -1.321709
 C         2.466870         0.311864        -1.060038
 H        -0.621342        -0.158828         0.719171
 H        -0.210415         1.462564         0.159735
 H        -0.345363         0.107337        -1.046771
 H         4.009356        -1.105812         0.046029
 H         2.433823         0.069737         2.096190
 H         2.526541         2.612771         1.953068
 H         4.301339         1.973446         1.306325
 H         2.566036         2.205177        -2.137309
 H         4.128890         1.660857        -1.727045
 H         2.349498        -0.128527        -2.040588
