19
Iteration:  1617
 C         0.038743         0.420191         0.015502
 C         1.460156         0.124445         0.021507
 O         1.851076        -1.267568         0.049682
 C         3.091574        -0.447846        -0.062315
 C         2.483099         0.497195         1.062592
 C         2.913423         1.973068         1.214441
 O         2.850200         2.586973        -0.065273
 C         3.026472         1.745745        -1.188073
 C         2.428310         0.386845        -1.098377
 H        -0.427310         0.091450         0.975633
 H        -0.322426         1.388375        -0.076388
 H        -0.357225        -0.328369        -0.716141
 H         4.012871        -1.114965        -0.148348
 H         2.522412        -0.099857         1.974406
 H         2.285974         2.499641         1.855658
 H         3.867273         2.126986         1.895350
 H         2.704595         2.235889        -2.075517
 H         4.156845         1.539616        -1.164784
 H         2.281750        -0.287861        -1.950916
