19
Iteration:  4997charge 0 multiplicity 1
 C        -0.113052         0.356705        -0.067902
 C         1.374883         0.189398         0.098503
 O         1.847215        -1.284319         0.206689
 C         3.125382        -0.510044         0.121027
 C         2.531627         0.485174         1.173683
 C         3.062861         1.914669         1.069647
 O         2.854251         2.650109        -0.159283
 C         2.953187         1.817201        -1.316545
 C         2.525814         0.343070        -1.055542
 H        -0.683998        -0.300211         0.538470
 H        -0.415952         1.427731        -0.101526
 H        -0.272349         0.138891        -1.103666
 H         4.056087        -1.096453         0.135184
 H         2.429978         0.029742         2.138713
 H         2.560986         2.482886         1.743493
 H         4.170393         1.947200         1.232178
 H         2.317802         2.151843        -2.148850
 H         4.010225         2.079679        -1.650789
 H         2.323074        -0.313735        -1.900531
