19
Iteration:  3589
 C         0.056120         0.425300        -0.036294
 C         1.409624         0.173263         0.031479
 O         1.860496        -1.337755         0.209970
 C         3.177450        -0.481384         0.086341
 C         2.410470         0.473882         1.085421
 C         3.024468         1.969600         1.068467
 O         2.781099         2.633103        -0.144672
 C         2.967572         1.732227        -1.248511
 C         2.501008         0.358682        -1.054885
 H        -0.571054         0.088659         0.778159
 H        -0.086781         1.496079        -0.004840
 H        -0.464324         0.033898        -0.902512
 H         4.048779        -1.076436         0.119785
 H         2.136637         0.025759         2.052566
 H         2.896194         2.685836         1.949892
 H         4.073470         1.915799         1.367319
 H         2.264196         2.210944        -1.995985
 H         3.918300         1.834794        -1.684704
 H         2.206282        -0.209723        -1.998416
