19
Iteration:  1891
 C         0.066197         0.488613         0.019895
 C         1.472160         0.127525         0.004877
 O         1.888984        -1.360143         0.067270
 C         3.133007        -0.508015         0.161402
 C         2.373374         0.502124         1.070347
 C         3.004316         1.847576         1.129158
 O         2.793418         2.586768        -0.100814
 C         2.955582         1.890552        -1.324871
 C         2.487637         0.428522        -0.998246
 H        -0.507675        -0.148426         0.783337
 H        -0.068020         1.495331        -0.145463
 H        -0.398348         0.311835        -0.953739
 H         4.171589        -1.020210         0.471144
 H         2.022015        -0.066173         1.948617
 H         2.460937         2.344040         1.920174
 H         4.169272         1.779849         1.349119
 H         2.219538         2.257996        -2.086846
 H         3.996610         1.817297        -1.597255
 H         2.356725        -0.168479        -1.994425
