19
Iteration:  3685charge 0 multiplicity 1
 C        -0.052009         0.438853         0.104885
 C         1.418134         0.124028         0.042166
 O         1.883156        -1.337713         0.093541
 C         3.124045        -0.452136         0.115683
 C         2.434500         0.527007         1.117303
 C         2.950686         1.969216         1.028060
 O         2.777662         2.633804        -0.134728
 C         3.079409         1.727272        -1.275287
 C         2.545028         0.341417        -1.104920
 H        -0.628305         0.174010         1.078120
 H        -0.195705         1.502913        -0.036700
 H        -0.742334        -0.060394        -0.726755
 H         4.111782        -1.095593         0.426726
 H         2.376831        -0.074514         1.987372
 H         2.539048         2.541912         1.868010
 H         4.063243         1.962459         1.274611
 H         2.525777         2.209180        -2.142330
 H         4.204203         1.791675        -1.434267
 H         2.421103        -0.244852        -2.065633
