19
Iteration:  3951
 C        -0.133975         0.367914        -0.079577
 C         1.393330         0.116498        -0.006437
 O         1.876831        -1.358636         0.248360
 C         3.118237        -0.496148         0.099571
 C         2.473632         0.538429         1.130867
 C         3.115891         1.981606         1.071917
 O         2.841391         2.649723        -0.122978
 C         2.999813         1.796194        -1.257261
 C         2.472004         0.378049        -1.037191
 H        -0.762006         0.046494         0.754727
 H        -0.311956         1.544352        -0.197969
 H        -0.427727        -0.168505        -0.970296
 H         4.111001        -0.964031        -0.062008
 H         2.362280         0.032464         2.032571
 H         2.613993         2.527465         1.754476
 H         4.151325         1.883497         1.138531
 H         2.412560         2.139707        -2.134373
 H         4.151941         1.818391        -1.559360
 H         2.188255        -0.155645        -1.908033
