19
Iteration:   671
 C        -0.121265         0.451179        -0.082598
 C         1.370165         0.125278         0.032311
 O         1.918427        -1.273853         0.145469
 C         3.152614        -0.497126        -0.025868
 C         2.564028         0.444476         1.158339
 C         3.001871         1.908883         1.192629
 O         2.752378         2.624755        -0.076365
 C         3.065643         1.785978        -1.249281
 C         2.450176         0.386560        -1.051296
 H        -0.802564        -0.039652         0.579407
 H        -0.118881         1.598625         0.049997
 H        -0.430967         0.286208        -1.107554
 H         4.111025        -1.125389        -0.208805
 H         2.595168        -0.268161         2.045787
 H         2.455676         2.547411         1.958320
 H         4.070202         1.891947         1.350036
 H         2.411342         2.295748        -1.944837
 H         4.140215         1.700785        -1.621614
 H         2.283219        -0.211513        -1.982929
