19
Iteration:  3167
 C        -0.066728         0.425971         0.018311
 C         1.359093         0.049088         0.002880
 O         1.899052        -1.268004         0.089197
 C         3.100032        -0.553519         0.100955
 C         2.520666         0.525143         1.022985
 C         3.014480         2.035070         1.139883
 O         2.798225         2.645492        -0.094134
 C         2.988730         1.739934        -1.239717
 C         2.555259         0.297530        -1.077277
 H        -0.282702         0.343886         1.101306
 H        -0.169847         1.591919        -0.288912
 H        -0.761404        -0.256365        -0.462630
 H         4.019861        -1.119464         0.262384
 H         2.240485         0.068388         2.008654
 H         2.476390         2.718161         1.829782
 H         4.062768         2.239654         1.512660
 H         2.351239         2.232612        -1.936334
 H         3.984630         1.803167        -1.724926
 H         2.512261        -0.343056        -1.934851
