19
Iteration:  3188
 C         0.022175         0.477644        -0.012875
 C         1.381759         0.191061         0.103067
 O         1.882288        -1.360483         0.200496
 C         3.149997        -0.484577         0.062637
 C         2.461476         0.463851         1.121497
 C         2.951827         1.873954         1.080761
 O         2.751889         2.613419        -0.159551
 C         3.026189         1.813590        -1.263133
 C         2.500071         0.357864        -1.137169
 H        -0.372659         0.233551         0.968070
 H        -0.121348         1.551738        -0.258782
 H        -0.451993        -0.220505        -0.664363
 H         4.174961        -0.973096        -0.006798
 H         2.428181         0.125857         2.188379
 H         2.545597         2.571240         1.776369
 H         3.948858         2.026226         1.443909
 H         2.634941         2.270813        -2.124133
 H         4.104997         1.702734        -1.448016
 H         2.282037        -0.108041        -2.078071
