19
Iteration:   493charge 0 multiplicity 1
 C        -0.094310         0.518171         0.002864
 C         1.345379         0.122989         0.044433
 O         1.956805        -1.397181         0.063005
 C         3.072975        -0.487447         0.110879
 C         2.402496         0.473481         1.117715
 C         3.079090         1.821232         1.100844
 O         2.784704         2.650100        -0.100832
 C         2.971865         1.861354        -1.240694
 C         2.583773         0.394887        -1.083363
 H        -0.576126        -0.074269         0.810129
 H        -0.038554         1.475893         0.314364
 H        -0.506853         0.322044        -1.059153
 H         4.068081        -0.951444         0.256352
 H         2.403424         0.178513         2.135366
 H         2.666396         2.458685         1.903484
 H         4.191145         1.551660         1.168280
 H         2.380007         2.169667        -2.053441
 H         4.021235         1.969124        -1.502995
 H         2.436716        -0.053511        -2.091937
