19
Iteration:  2110charge 0 multiplicity 1
 C        -0.085802         0.356208         0.075023
 C         1.371449         0.122779         0.011929
 O         1.816603        -1.309148        -0.028537
 C         3.086533        -0.514663         0.064920
 C         2.514057         0.511422         1.110826
 C         3.056661         1.960692         1.105178
 O         2.710949         2.664184        -0.103776
 C         3.160984         1.820091        -1.154520
 C         2.546622         0.333757        -1.067410
 H        -0.512610        -0.092041         0.996489
 H        -0.218502         1.378543        -0.201128
 H        -0.523065        -0.262013        -0.691600
 H         3.937794        -1.038843         0.051430
 H         2.124248         0.174517         2.099129
 H         2.585153         2.595755         1.963257
 H         4.088732         2.169891         1.457258
 H         2.869641         2.279073        -2.164554
 H         4.256204         1.824941        -1.174271
 H         2.387547        -0.241404        -2.067159
