19
Iteration:  3215
 C        -0.103042         0.460008        -0.027500
 C         1.368831         0.131415         0.086659
 O         1.858067        -1.271906         0.112492
 C         3.200991        -0.507313         0.047231
 C         2.577850         0.524572         1.132316
 C         3.039808         1.973996         1.148847
 O         2.663410         2.575332        -0.151252
 C         3.050071         1.696656        -1.231115
 C         2.524459         0.325867        -1.058912
 H        -0.743184         0.078389         0.840986
 H        -0.073679         1.622774         0.019649
 H        -0.487411         0.094122        -1.036605
 H         4.091571        -1.079136        -0.128338
 H         2.490640         0.231804         2.171356
 H         2.507749         2.703033         1.857368
 H         4.130436         2.112000         1.302250
 H         2.628092         2.158782        -2.211064
 H         4.160881         1.677405        -1.403568
 H         2.285628        -0.169273        -2.051205
