19
Iteration:   391charge 0 multiplicity 1
 C        -0.175756         0.539750         0.139983
 C         1.445449         0.176024        -0.047062
 O         1.946649        -1.307532         0.008487
 C         3.159604        -0.484185         0.081522
 C         2.428913         0.356393         1.063803
 C         2.948883         1.838841         1.166549
 O         2.798547         2.590696        -0.100528
 C         3.033814         1.836696        -1.304069
 C         2.526210         0.382908        -1.065052
 H        -0.223449         0.362025         1.185248
 H        -0.217677         1.685222        -0.127019
 H        -0.784278        -0.124340        -0.359586
 H         4.119751        -0.954611         0.323495
 H         2.228440        -0.063354         2.081458
 H         2.460382         2.415068         1.976006
 H         4.016167         2.088545         1.352494
 H         2.714883         2.481310        -2.137787
 H         4.121139         1.640243        -1.373408
 H         2.481908        -0.269813        -1.977271
