19
Iteration:   857
 C        -0.116368         0.356062        -0.010008
 C         1.415803         0.112165         0.026790
 O         1.813410        -1.309975         0.070840
 C         3.061183        -0.528987         0.060893
 C         2.567206         0.454308         1.062497
 C         3.053582         1.966919         1.169295
 O         2.785888         2.676047        -0.056350
 C         3.074373         1.830033        -1.273923
 C         2.531204         0.360492        -1.019945
 H        -0.586177        -0.167251         0.795420
 H        -0.515244         1.513991        -0.070685
 H        -0.389638        -0.039090        -1.002008
 H         4.052257        -1.182775        -0.091840
 H         2.422600        -0.015432         2.082482
 H         2.563638         2.556255         1.996199
 H         4.164650         2.167231         1.291468
 H         2.553568         2.329005        -2.047046
 H         4.183837         1.907936        -1.440601
 H         2.163709         0.011618        -2.021571
