19
Iteration:  2913
 C        -0.051023         0.384590        -0.023775
 C         1.370375         0.102540         0.061278
 O         1.886009        -1.299184         0.124975
 C         3.085446        -0.456767         0.080092
 C         2.473896         0.543093         1.069858
 C         3.026994         1.917320         1.130276
 O         2.873342         2.577706        -0.102771
 C         2.960532         1.800550        -1.298960
 C         2.494466         0.406433        -1.019383
 H        -0.651251        -0.216455         0.762636
 H        -0.355436         1.400002        -0.065951
 H        -0.194877        -0.220601        -1.014980
 H         4.090763        -0.894836         0.273274
 H         2.569236         0.075295         2.039388
 H         2.549775         2.559002         1.899381
 H         4.182931         1.876621         1.298728
 H         2.319027         2.246852        -2.007974
 H         3.963510         2.041247        -1.731656
 H         2.295539        -0.144827        -1.890268
