19
Iteration:  2438
 C        -0.118452         0.408328         0.030361
 C         1.377061         0.090199         0.006334
 O         1.919630        -1.294345         0.047209
 C         3.090896        -0.487432         0.036483
 C         2.515072         0.489512         1.091221
 C         2.948043         1.979811         1.214136
 O         2.860283         2.648205        -0.048316
 C         3.020836         1.763532        -1.230308
 C         2.545639         0.329118        -1.144568
 H        -0.644811         0.047339         0.928964
 H        -0.060796         1.486064        -0.275965
 H        -0.675450        -0.075800        -0.773744
 H         3.985481        -1.068937         0.184930
 H         2.383122        -0.020214         2.040475
 H         2.371552         2.538866         1.948204
 H         3.983199         2.251352         1.593893
 H         2.405485         2.217778        -2.059661
 H         4.096649         1.894458        -1.631609
 H         2.379005        -0.258651        -2.073792
