19
Iteration:  3023charge 0 multiplicity 1
 C         0.065033         0.516683         0.029775
 C         1.456449         0.096473        -0.018327
 O         1.884803        -1.362998         0.187276
 C         3.110850        -0.513084         0.072413
 C         2.527181         0.455704         1.105684
 C         2.882920         1.915776         1.119580
 O         2.733365         2.652791        -0.162722
 C         2.985363         1.781889        -1.280206
 C         2.520377         0.362878        -1.098885
 H        -0.343827         0.108532         1.037675
 H         0.173564         1.667283         0.010774
 H        -0.657940         0.164808        -0.824435
 H         4.195232        -0.884942         0.204198
 H         2.119976         0.024580         2.050516
 H         2.479350         2.390665         2.040377
 H         3.915487         2.000642         1.492777
 H         2.621258         2.221176        -2.156347
 H         4.116993         1.825597        -1.459094
 H         2.156055        -0.004491        -2.044763
