19
Iteration:  2991
 C        -0.123515         0.460772        -0.023565
 C         1.432943         0.173438         0.083704
 O         1.860089        -1.353757         0.114380
 C         3.147813        -0.523381         0.080309
 C         2.669954         0.508162         1.078867
 C         2.964192         1.959372         1.128177
 O         2.724909         2.553088        -0.133704
 C         3.052571         1.744395        -1.235209
 C         2.485697         0.410267        -1.099900
 H        -0.535987         0.387005         1.021793
 H        -0.172512         1.550451        -0.340498
 H        -0.614680        -0.226471        -0.787645
 H         4.142409        -0.938782         0.114815
 H         2.471216         0.046981         2.064460
 H         2.170653         2.322393         1.894350
 H         3.999689         2.374006         1.338338
 H         2.566176         2.245124        -2.023903
 H         4.135199         1.858597        -1.205546
 H         2.169551        -0.060202        -2.009277
