19
Iteration:  1992
 C        -0.087158         0.439827        -0.018726
 C         1.397960         0.165407        -0.015256
 O         1.930287        -1.338789         0.061068
 C         3.086083        -0.475330         0.127389
 C         2.420754         0.530902         1.056441
 C         3.004039         1.869390         1.197278
 O         2.833474         2.619163        -0.089630
 C         2.958059         1.796740        -1.251269
 C         2.602272         0.366529        -1.075546
 H        -0.519748         0.026151         0.922214
 H        -0.226097         1.635320        -0.123650
 H        -0.723179        -0.026000        -0.776179
 H         4.222925        -0.949829         0.302593
 H         2.255842         0.016130         2.001875
 H         2.659212         2.363983         2.044424
 H         4.115415         1.819958         1.439082
 H         2.212472         2.171238        -1.938464
 H         3.979521         1.932735        -1.738839
 H         2.468746        -0.245625        -2.013987
