19
Iteration:  4844
 C        -0.064999         0.520764        -0.086798
 C         1.414532         0.086656         0.003188
 O         1.883514        -1.385007         0.164695
 C         3.141136        -0.494353         0.171178
 C         2.481275         0.533491         1.123879
 C         3.105771         1.932350         1.083382
 O         2.712858         2.599899        -0.143319
 C         2.916918         1.830926        -1.297354
 C         2.545514         0.307118        -1.020540
 H        -0.520778         0.582285         0.906099
 H        -0.038234         1.568139        -0.437911
 H        -0.501706        -0.280048        -0.688788
 H         4.118546        -0.975397         0.370814
 H         2.454981         0.120601         2.133546
 H         2.794753         2.595494         2.000079
 H         4.148774         1.952806         1.204649
 H         2.423791         2.289603        -2.179874
 H         4.001535         1.782548        -1.449129
 H         2.336103        -0.132418        -2.016260
