19
Iteration:  4287charge 0 multiplicity 1
 C        -0.057134         0.499318        -0.034803
 C         1.395949         0.136086         0.019317
 O         1.863428        -1.315407         0.137347
 C         3.172316        -0.464278         0.123397
 C         2.443441         0.552123         1.145310
 C         3.125733         1.903269         1.101217
 O         2.713516         2.550380        -0.125932
 C         2.931656         1.810816        -1.244111
 C         2.581388         0.281399        -1.082420
 H        -0.610874         0.043250         0.824355
 H        -0.240851         1.651262        -0.313152
 H        -0.571674        -0.026916        -0.856797
 H         4.239097        -0.921465         0.234953
 H         2.286681         0.084086         2.170835
 H         2.619832         2.666525         1.853847
 H         4.168894         1.785422         1.285738
 H         2.365068         2.348067        -2.081523
 H         4.008368         1.912246        -1.753147
 H         2.627638        -0.378836        -1.971146
