19
Iteration:  1406charge 0 multiplicity 1
 C        -0.172047         0.442650         0.044744
 C         1.328112         0.172181         0.093977
 O         1.915161        -1.313505         0.123303
 C         3.057794        -0.464222        -0.025358
 C         2.556296         0.457385         1.050354
 C         2.939826         1.886874         1.129249
 O         2.749624         2.579652        -0.081902
 C         3.197816         1.813291        -1.200455
 C         2.546784         0.427103        -1.151981
 H        -0.847780         0.247133         0.995410
 H        -0.189263         1.449670        -0.300690
 H        -0.413428        -0.340462        -0.774571
 H         4.109347        -0.829972        -0.083994
 H         2.702049        -0.171650         1.986339
 H         2.415106         2.265319         1.939508
 H         3.969194         2.001223         1.419320
 H         2.645575         2.288062        -2.046903
 H         4.337135         1.718392        -1.071913
 H         2.423483        -0.155865        -2.103343
