19
Iteration:  3581
 C         0.006783         0.435999        -0.041210
 C         1.459066         0.094698         0.030092
 O         1.873712        -1.255561         0.165796
 C         3.125683        -0.531650         0.062643
 C         2.394622         0.538650         1.139225
 C         3.029769         1.980014         1.154025
 O         2.806417         2.573896        -0.184711
 C         2.931485         1.802231        -1.280005
 C         2.542984         0.322241        -1.010585
 H        -0.295376         0.051314         0.935832
 H        -0.299196         1.587226        -0.143009
 H        -0.523597        -0.100718        -0.790990
 H         4.001345        -1.116399         0.152113
 H         2.222317        -0.128780         2.058007
 H         2.671450         2.781081         1.883859
 H         4.148323         1.737554         1.145202
 H         2.245548         2.177392        -2.028777
 H         3.977917         1.932610        -1.706577
 H         2.332417        -0.168691        -1.943379
