19
Iteration:   156charge 0 multiplicity 1
 C        -0.055174         0.491323         0.004838
 C         1.423434         0.125455         0.009616
 O         1.921658        -1.270159         0.116016
 C         3.111694        -0.452692         0.041937
 C         2.453343         0.420217         1.095360
 C         3.017837         1.835783         1.101069
 O         2.753306         2.628741        -0.098209
 C         3.034383         1.756559        -1.173399
 C         2.466495         0.447224        -1.069318
 H        -0.625839         0.025134         0.765571
 H        -0.112262         1.499713         0.107387
 H        -0.397272         0.135192        -1.039455
 H         4.155915        -1.058969         0.032067
 H         2.157937         0.020489         2.134945
 H         2.735506         2.337947         2.086164
 H         4.082186         1.591266         1.089907
 H         2.549049         2.203648        -2.161366
 H         4.113575         1.717765        -1.439560
 H         2.361681        -0.140217        -2.070986
