19
Iteration:  4379
 C        -0.071468         0.368334         0.103947
 C         1.363439         0.108109         0.084359
 O         1.877400        -1.282068         0.121342
 C         3.097260        -0.478685         0.019010
 C         2.457267         0.525114         1.089896
 C         2.941598         1.949734         1.116735
 O         2.841948         2.607068        -0.177734
 C         3.151682         1.765404        -1.272372
 C         2.516107         0.355549        -1.083728
 H        -0.600482        -0.037878         1.013112
 H        -0.143432         1.527943         0.043616
 H        -0.781238         0.005214        -0.747173
 H         4.038361        -1.045946         0.210320
 H         2.347757         0.086769         2.102179
 H         2.250195         2.645632         1.763838
 H         3.909951         2.079400         1.502841
 H         2.653647         2.226222        -2.200760
 H         4.241385         1.948740        -1.560723
 H         2.353648        -0.209916        -2.013720
