19
Iteration:  4789charge 0 multiplicity 1
 C        -0.160508         0.367320        -0.049397
 C         1.361983         0.146762         0.029907
 O         1.927516        -1.307380         0.175203
 C         3.094814        -0.441793         0.103408
 C         2.494494         0.543807         1.141027
 C         3.051881         2.014591         1.138961
 O         2.844475         2.616512        -0.124094
 C         3.004126         1.703617        -1.315511
 C         2.475641         0.328073        -1.058010
 H        -0.663813        -0.223559         0.738803
 H        -0.242213         1.440043         0.091338
 H        -0.369588         0.167771        -1.103145
 H         3.985923        -1.083211         0.076181
 H         2.514326         0.031552         2.112989
 H         2.501740         2.627682         1.996688
 H         4.262261         1.951963         1.269910
 H         2.577285         2.201572        -2.206971
 H         4.108332         1.619651        -1.677278
 H         2.350162        -0.075436        -2.087507
