19
Iteration:   445charge 0 multiplicity 1
 C        -0.092005         0.357324        -0.108167
 C         1.411839         0.224975         0.046183
 O         1.801332        -1.238235         0.182611
 C         3.074290        -0.598156        -0.018056
 C         2.659232         0.448878         1.059385
 C         3.070677         1.939209         1.123012
 O         2.757697         2.561750        -0.025737
 C         3.017693         1.864517        -1.209518
 C         2.527787         0.434257        -1.043326
 H        -0.600431        -0.204695         0.659247
 H        -0.341878         1.541401        -0.023282
 H        -0.226912        -0.076910        -1.046575
 H         3.875749        -1.358277        -0.151094
 H         2.435589        -0.001255         2.094004
 H         2.398095         2.259141         1.947676
 H         4.202622         2.066427         1.277395
 H         2.312265         2.288459        -1.969732
 H         4.039665         1.905998        -1.587804
 H         2.174216        -0.093356        -1.989035
