19
Iteration:  4231
 C        -0.027350         0.499599        -0.026520
 C         1.446956         0.135768         0.022965
 O         1.838467        -1.322772         0.163088
 C         3.096834        -0.534355         0.083148
 C         2.620584         0.510952         1.102246
 C         2.984374         1.939306         1.147881
 O         2.641661         2.602038        -0.167065
 C         3.109102         1.722244        -1.282222
 C         2.491971         0.367627        -1.066432
 H        -0.460955         0.175949         0.986332
 H        -0.221648         1.610215         0.154053
 H        -0.622749         0.048494        -0.902068
 H         4.035889        -1.099263         0.195853
 H         2.557591         0.115292         2.179959
 H         2.232156         2.494271         1.751784
 H         3.987232         2.105461         1.452537
 H         2.613326         2.310116        -2.060645
 H         4.303777         1.683298        -1.484789
 H         2.465740        -0.058664        -2.076568
