19
Iteration:  4912charge 0 multiplicity 1
 C        -0.042861         0.431705         0.085482
 C         1.475342         0.092734         0.047193
 O         1.793408        -1.269994         0.107337
 C         3.175447        -0.501630         0.035874
 C         2.466072         0.502286         1.076078
 C         2.930428         2.045885         1.130405
 O         2.739222         2.642627        -0.186760
 C         3.082957         1.698500        -1.275998
 C         2.570001         0.302120        -1.065031
 H        -0.407181         0.182179         1.049128
 H        -0.140745         1.585555         0.152322
 H        -0.603430        -0.077002        -0.661821
 H         4.021634        -1.249726         0.211398
 H         2.404088         0.114875         2.039157
 H         2.340143         2.726770         1.993449
 H         3.898270         2.024812         1.464315
 H         2.696964         2.016764        -2.202395
 H         4.153881         1.624974        -1.264956
 H         2.468905        -0.217447        -2.017363
