19
Iteration:  3061charge 0 multiplicity 1
 C        -0.053097         0.421262         0.024678
 C         1.446081         0.161373         0.023564
 O         1.846999        -1.278102         0.067742
 C         3.138338        -0.469930         0.115973
 C         2.460834         0.467923         1.182524
 C         3.068260         1.925460         1.128394
 O         2.687151         2.598497        -0.166807
 C         3.032358         1.763453        -1.288163
 C         2.607596         0.345213        -1.059558
 H        -0.509261        -0.129700         0.801293
 H        -0.245738         1.440470         0.316012
 H        -0.536080         0.250165        -0.884291
 H         4.079209        -0.923766         0.276667
 H         2.241278         0.032046         2.169117
 H         2.478896         2.673213         1.642536
 H         4.218507         2.037478         1.208924
 H         2.324131         2.139069        -2.124787
 H         4.077483         1.749292        -1.506824
 H         2.167775        -0.221532        -1.936686
