19
Iteration:  1447
 C         0.047762         0.378710         0.066873
 C         1.457342         0.144722         0.039416
 O         1.804805        -1.344296        -0.029783
 C         3.087642        -0.456786         0.038479
 C         2.442008         0.507611         1.080348
 C         2.939818         1.929420         1.139371
 O         2.810311         2.641889        -0.087375
 C         3.043687         1.810349        -1.225829
 C         2.567396         0.351680        -1.060347
 H        -0.303018         0.132620         1.003312
 H        -0.089426         1.530896         0.014899
 H        -0.542938        -0.066951        -0.641049
 H         3.981185        -0.993507         0.117715
 H         2.221288         0.078907         2.063504
 H         2.292770         2.574915         1.878417
 H         4.021660         1.801149         1.605808
 H         2.416403         2.342795        -2.012213
 H         4.128604         1.598832        -1.234650
 H         2.251429        -0.198133        -1.961504
