19
Iteration:  2211charge 0 multiplicity 1
 C        -0.082661         0.429827        -0.068146
 C         1.425923         0.144431        -0.049505
 O         1.868926        -1.300168         0.061001
 C         3.134694        -0.533136         0.142113
 C         2.451728         0.492162         1.117367
 C         3.077373         1.869117         1.127709
 O         2.767099         2.651919        -0.092111
 C         2.965875         1.815100        -1.182075
 C         2.594984         0.353991        -1.030406
 H        -0.529829         0.101952         0.803041
 H        -0.131866         1.510742         0.207497
 H        -0.518244         0.036741        -0.940414
 H         4.065418        -1.024813         0.174101
 H         2.062729         0.048821         2.020466
 H         2.622379         2.475655         1.965416
 H         4.230344         1.952258         1.180347
 H         2.176669         2.136907        -1.896378
 H         3.904636         2.009142        -1.768429
 H         2.375191        -0.182879        -2.024006
