19
Iteration:  3777
 C        -0.110339         0.382732        -0.031640
 C         1.356874         0.101056         0.014430
 O         1.915701        -1.219601         0.131381
 C         3.124760        -0.487084         0.156266
 C         2.437567         0.504136         1.151636
 C         3.113751         1.920264         1.026532
 O         2.774228         2.606101        -0.102262
 C         2.978620         1.738377        -1.339985
 C         2.561940         0.383198        -1.010503
 H        -0.575079         0.019817         0.854542
 H        -0.260149         1.529725        -0.094670
 H        -0.540827        -0.060924        -0.855264
 H         4.110702        -0.963819         0.205595
 H         2.148593         0.249963         2.211969
 H         2.719991         2.525872         1.929942
 H         4.101823         1.891280         1.229337
 H         2.481428         2.267700        -2.153823
 H         4.071523         1.570416        -1.570288
 H         2.391924        -0.173740        -1.915501
