19
Iteration:  3470
 C         0.073309         0.448224         0.040494
 C         1.531080         0.122311         0.006092
 O         1.762966        -1.353166         0.102681
 C         3.141690        -0.449341         0.161138
 C         2.449052         0.560345         1.143455
 C         2.928531         1.945135         1.049297
 O         2.755072         2.593160        -0.151316
 C         2.993583         1.776338        -1.287216
 C         2.531540         0.362655        -1.072762
 H        -0.252309        -0.138570         0.904009
 H         0.006175         1.557447         0.375839
 H        -0.479864         0.038816        -0.822047
 H         3.962088        -1.076923         0.162527
 H         2.178604         0.041575         2.116001
 H         2.725861         2.607151         1.902903
 H         3.932698         1.925547         1.250979
 H         2.498257         2.151156        -2.208312
 H         4.118253         1.649288        -1.477701
 H         2.476881        -0.230818        -2.007077
