19
Iteration:  4691
 C        -0.084125         0.540981        -0.010921
 C         1.427948         0.095910         0.038979
 O         1.918785        -1.382559         0.165890
 C         3.109869        -0.508789         0.065166
 C         2.512958         0.536008         1.043975
 C         3.001138         1.983504         1.103732
 O         2.701969         2.610512        -0.122081
 C         3.030412         1.739060        -1.246014
 C         2.517237         0.331623        -1.034854
 H        -0.501330         0.381407         0.986423
 H        -0.005300         1.517245        -0.504836
 H        -0.591887        -0.012231        -0.808461
 H         4.135352        -0.917873         0.065986
 H         2.400389         0.227469         2.075918
 H         2.611261         2.656111         1.949688
 H         3.983980         1.810623         1.298436
 H         2.560032         2.181364        -2.102657
 H         4.165067         1.588158        -1.239354
 H         2.367612        -0.152004        -2.032951
