19
Iteration:   236charge 0 multiplicity 1
 C        -0.112467         0.473941        -0.040008
 C         1.338042         0.121977         0.087535
 O         1.989981        -1.267141         0.089137
 C         3.120125        -0.443417        -0.116349
 C         2.492309         0.475959         1.099676
 C         2.984617         1.931955         1.249924
 O         2.827380         2.575473        -0.069084
 C         3.057588         1.695974        -1.217842
 C         2.414038         0.371873        -1.083954
 H        -0.750110         0.451953         0.880120
 H        -0.094659         1.573390        -0.254588
 H        -0.658954         0.049266        -0.737010
 H         4.063350        -0.900565        -0.311617
 H         2.503055        -0.139864         2.009485
 H         2.450075         2.540690         1.934489
 H         4.050545         1.955313         1.532883
 H         2.727620         2.266260        -2.067469
 H         4.170855         1.568108        -1.260544
 H         2.178255        -0.287315        -1.885887
