19
Iteration:  2689
 C        -0.085512         0.330381         0.004396
 C         1.404642         0.178513         0.052646
 O         1.900928        -1.272819         0.128921
 C         3.068553        -0.454787         0.044120
 C         2.560149         0.486753         1.133214
 C         2.971895         1.880509         1.131281
 O         2.772820         2.633176        -0.136440
 C         3.137709         1.795317        -1.292153
 C         2.423576         0.431773        -1.063815
 H        -0.514250        -0.344083         0.766885
 H        -0.496270         1.434613         0.118932
 H        -0.494762        -0.030963        -0.957658
 H         4.076581        -1.038482         0.093380
 H         2.376219        -0.049987         2.056560
 H         2.441979         2.512117         1.796349
 H         4.052578         1.899535         1.449135
 H         2.685989         2.354309        -2.034481
 H         4.183310         1.487819        -1.415171
 H         2.382811        -0.214110        -1.962361
