19
Iteration:  4424charge 0 multiplicity 1
 C         0.040131         0.478165         0.032054
 C         1.463825         0.122345         0.029747
 O         1.879849        -1.270173         0.143967
 C         3.065852        -0.500518         0.091887
 C         2.434244         0.510294         1.132550
 C         3.022420         1.948217         1.105814
 O         2.719208         2.575693        -0.130652
 C         2.974145         1.713574        -1.288845
 C         2.570768         0.341028        -1.088248
 H        -0.635706         0.058945         0.879756
 H         0.016252         1.621885        -0.007192
 H        -0.473633        -0.077234        -0.899118
 H         4.026544        -1.029623        -0.002336
 H         2.250750         0.246789         2.206070
 H         2.499859         2.660168         1.895982
 H         4.024846         1.933988         1.287984
 H         2.625918         2.316231        -2.185448
 H         4.077560         1.745223        -1.597206
 H         2.390515        -0.173864        -2.060408
