19
Iteration:  2735
 C         0.056066         0.402568        -0.039400
 C         1.446221         0.130394        -0.085567
 O         1.872683        -1.305793         0.104798
 C         3.114308        -0.473237         0.174892
 C         2.428355         0.515786         1.159640
 C         3.043295         1.890124         1.118735
 O         2.823306         2.635690        -0.095392
 C         2.853830         1.790454        -1.305811
 C         2.542659         0.346828        -1.065140
 H        -0.342631         0.031088         0.930412
 H        -0.187456         1.572625        -0.063573
 H        -0.696543         0.043821        -0.806163
 H         4.315755        -0.844312         0.115866
 H         2.192884         0.050565         2.124190
 H         2.526666         2.499695         1.861423
 H         4.168571         1.804781         1.368671
 H         2.111961         2.308302        -1.824176
 H         3.926527         1.889744        -1.476876
 H         2.281059        -0.319336        -1.963150
