19
Iteration:  3147charge 0 multiplicity 1
 C        -0.079762         0.391860         0.063033
 C         1.457238         0.132204        -0.036311
 O         1.821154        -1.363146         0.119213
 C         3.141111        -0.461519         0.136166
 C         2.509431         0.522010         1.155854
 C         2.972994         1.894938         1.100872
 O         2.842763         2.622214        -0.147132
 C         2.973006         1.806661        -1.327618
 C         2.562843         0.405479        -1.043131
 H        -0.540817         0.285435         1.065733
 H        -0.391653         1.515473        -0.398697
 H        -0.514188        -0.341579        -0.636372
 H         4.067340        -0.926040         0.130671
 H         2.251613         0.109483         2.135034
 H         2.387259         2.595511         1.906091
 H         4.102276         1.916952         1.430309
 H         2.371000         2.323337        -2.160742
 H         4.036207         1.849559        -1.753524
 H         2.415721        -0.224024        -1.949903
