19
Iteration:   412charge 0 multiplicity 1
 C        -0.070996         0.458259         0.106198
 C         1.350460         0.085928         0.009622
 O         1.936200        -1.367627        -0.010386
 C         3.062014        -0.406628         0.036137
 C         2.415863         0.483040         1.059039
 C         3.009743         1.911265         1.125668
 O         2.783940         2.595828        -0.033779
 C         3.094276         1.788415        -1.245320
 C         2.520940         0.357005        -1.052269
 H        -0.478519         0.372691         1.112962
 H         0.020180         1.611399        -0.258475
 H        -0.684435         0.026778        -0.594578
 H         3.984542        -0.965482         0.013644
 H         2.283791         0.105801         2.110952
 H         2.789224         2.595638         1.948129
 H         4.169497         1.893068         1.258918
 H         2.539928         2.361435        -2.018907
 H         4.132641         1.915641        -1.407134
 H         2.377204        -0.151924        -2.022372
