19
Iteration:    51
 C        -0.055894         0.440832         0.070082
 C         1.415067         0.087714         0.069657
 O         1.840268        -1.421386         0.061058
 C         3.087798        -0.534065         0.015025
 C         2.458195         0.450280         1.018459
 C         3.009586         1.932831         1.095048
 O         2.825625         2.721309        -0.083246
 C         3.077565         1.864394        -1.170497
 C         2.475136         0.402474        -1.092409
 H        -0.556128         0.234367         1.062128
 H        -0.151524         1.520343        -0.375922
 H        -0.551489        -0.201065        -0.720495
 H         4.057039        -0.965196         0.151114
 H         2.368771         0.110312         2.065690
 H         2.521546         2.452968         1.940551
 H         4.089532         1.862567         1.426028
 H         2.662570         2.345823        -2.050160
 H         4.211511         1.708520        -1.238609
 H         2.328612        -0.050942        -2.064362
