19
Iteration:   947
 C         0.031939         0.488283         0.012611
 C         1.457004         0.139172         0.000539
 O         1.812672        -1.305324         0.018043
 C         3.094051        -0.538085         0.134280
 C         2.475864         0.424152         1.159065
 C         3.012000         1.896542         1.145989
 O         2.728574         2.623030        -0.099377
 C         2.955556         1.818169        -1.286653
 C         2.642702         0.388669        -1.094385
 H        -0.345099         0.138686         1.056193
 H        -0.214420         1.574580        -0.100435
 H        -0.482337        -0.008652        -0.810061
 H         3.995644        -1.146705         0.158545
 H         2.223235        -0.019722         2.086698
 H         2.495008         2.509352         1.871478
 H         4.064776         1.946110         1.463285
 H         2.362899         2.324154        -1.935103
 H         4.088359         1.940499        -1.532985
 H         2.367914        -0.194516        -1.910199
