19
Iteration:  3722charge 0 multiplicity 1
 C        -0.102084         0.400383        -0.035353
 C         1.399587         0.141022         0.100396
 O         1.859663        -1.278713         0.186149
 C         3.111234        -0.490849         0.048277
 C         2.571084         0.482088         1.091398
 C         2.934740         1.991600         1.126297
 O         2.850297         2.604104        -0.109917
 C         3.011506         1.754198        -1.273601
 C         2.520135         0.302563        -1.124634
 H        -0.642993         0.216377         0.840194
 H        -0.193507         1.446635        -0.462564
 H        -0.404379        -0.269676        -0.744779
 H         4.122688        -0.781171         0.177191
 H         2.500048         0.124774         2.146029
 H         2.444483         2.671112         1.955313
 H         4.079215         2.012177         1.399606
 H         2.373053         2.254687        -2.011025
 H         4.075819         1.807704        -1.751993
 H         2.179759        -0.113048        -2.049326
