19
Iteration:  1210charge 0 multiplicity 1
 C        -0.014637         0.443887        -0.064201
 C         1.447909         0.168272        -0.005061
 O         1.818402        -1.348939         0.113358
 C         3.105252        -0.488798         0.002892
 C         2.603646         0.473417         1.079937
 C         2.997777         1.950940         1.209555
 O         2.787756         2.597874        -0.034097
 C         3.013038         1.814202        -1.183329
 C         2.438641         0.389734        -1.111923
 H        -0.581318         0.196983         0.885542
 H        -0.165354         1.405907        -0.227222
 H        -0.384512        -0.172798        -0.912057
 H         4.119015        -1.076926        -0.109184
 H         2.271864        -0.008480         1.996399
 H         2.309421         2.371178         1.943780
 H         4.001228         1.950774         1.553210
 H         2.583115         2.349159        -2.044453
 H         4.138400         1.686599        -1.546123
 H         2.157120        -0.152652        -2.030815
