19
Iteration:  2045charge 0 multiplicity 1
 C        -0.142910         0.457410        -0.158555
 C         1.402976         0.138706         0.047398
 O         1.940388        -1.322408         0.103893
 C         3.177664        -0.554470         0.019760
 C         2.514806         0.473765         1.159138
 C         2.981903         1.979734         1.185435
 O         2.935987         2.657606        -0.090623
 C         2.911837         1.795014        -1.192385
 C         2.464527         0.349243        -1.030787
 H        -0.842321        -0.028968         0.601504
 H        -0.505442         1.515468         0.155887
 H        -0.501985        -0.000377        -1.076149
 H         4.052519        -1.150368        -0.288154
 H         2.401371        -0.073617         2.121452
 H         2.265686         2.364127         1.965788
 H         3.992916         2.147003         1.562422
 H         2.363472         2.351532        -2.011124
 H         3.920826         1.738167        -1.703918
 H         2.359000        -0.344909        -1.988165
