19
Iteration:   573
 C        -0.093735         0.464036         0.022653
 C         1.359425         0.100868         0.087053
 O         1.891784        -1.369218         0.085110
 C         3.078874        -0.489385        -0.007033
 C         2.584422         0.426561         1.037859
 C         2.967770         1.998625         1.098235
 O         2.746871         2.644470        -0.071726
 C         3.146632         1.764845        -1.137979
 C         2.430885         0.408998        -1.114782
 H        -0.649116         0.288968         0.949891
 H        -0.154313         1.512153        -0.393645
 H        -0.485950        -0.201071        -0.700281
 H         4.120654        -0.873752        -0.041626
 H         2.461749        -0.101701         2.023544
 H         2.529485         2.535861         1.947156
 H         4.093453         1.977426         1.327872
 H         2.804198         2.325905        -2.086734
 H         4.222020         1.658007        -1.090292
 H         2.389366        -0.070984        -2.073856
