19
Iteration:  3387charge 0 multiplicity 1
 C        -0.081456         0.397304        -0.004195
 C         1.428930         0.132554        -0.004235
 O         1.835630        -1.358226         0.191037
 C         3.067998        -0.538170         0.085083
 C         2.504173         0.507594         1.104253
 C         3.120404         1.976230         1.107135
 O         2.709660         2.657183        -0.136467
 C         3.054885         1.844060        -1.270340
 C         2.570025         0.335234        -1.055685
 H        -0.470683         0.134905         0.965772
 H        -0.364777         1.511808        -0.156171
 H        -0.648467        -0.105237        -0.779872
 H         4.107949        -1.139931        -0.011484
 H         2.331293        -0.005855         2.055834
 H         2.458277         2.548847         1.717960
 H         4.097712         2.084312         1.302606
 H         2.520391         2.217786        -2.133808
 H         4.163464         1.874187        -1.504405
 H         2.346156        -0.211076        -1.962328
