19
Iteration:  4038charge 0 multiplicity 1
 C        -0.002734         0.493036         0.055763
 C         1.509534         0.113480         0.051480
 O         1.802939        -1.403428         0.185506
 C         3.115044        -0.498133         0.053864
 C         2.594011         0.529564         1.108784
 C         2.892024         1.972426         1.076388
 O         2.699560         2.645979        -0.194819
 C         3.130361         1.772172        -1.204375
 C         2.441389         0.279790        -1.104887
 H        -0.636641         0.189891         0.885601
 H        -0.264802         1.708639        -0.147344
 H        -0.280201         0.088270        -0.931934
 H         4.139675        -1.059891        -0.049188
 H         2.451124         0.105283         2.015630
 H         2.517822         2.593499         1.851263
 H         4.046187         2.130239         1.341925
 H         2.795876         2.295361        -2.110343
 H         4.145453         1.744925        -1.174354
 H         2.131274        -0.080827        -2.066827
