19
Iteration:  2584charge 0 multiplicity 1
 C         0.021584         0.525902        -0.110817
 C         1.432852         0.073247         0.053787
 O         1.866293        -1.349442         0.208733
 C         3.117987        -0.466218         0.017918
 C         2.551486         0.452466         1.093305
 C         3.003312         1.830068         1.102335
 O         2.694561         2.634644        -0.059691
 C         2.937862         1.846578        -1.256265
 C         2.570543         0.385382        -1.029062
 H        -0.625669         0.356583         0.733627
 H        -0.092350         1.583240        -0.276747
 H        -0.328617        -0.053464        -0.971670
 H         3.929971        -1.063220         0.083418
 H         2.553333        -0.095328         2.052691
 H         2.416007         2.473432         1.863916
 H         4.084826         1.771401         1.433194
 H         2.433844         2.396702        -2.141485
 H         3.949428         1.909226        -1.670733
 H         2.323048        -0.062542        -2.029521
