19
Iteration:  4242charge 0 multiplicity 1
 C         0.028311         0.500580        -0.026920
 C         1.430098         0.150969         0.062381
 O         1.824831        -1.357654         0.155628
 C         3.096265        -0.522775         0.032645
 C         2.603739         0.472474         1.090938
 C         2.984964         2.062055         1.106951
 O         2.681222         2.617054        -0.124734
 C         3.032874         1.725198        -1.216909
 C         2.514752         0.313889        -1.054028
 H        -0.591107         0.050593         0.793135
 H         0.035196         1.624830        -0.196406
 H        -0.414764         0.110097        -1.011071
 H         4.041239        -1.092213        -0.010485
 H         2.375938         0.001970         2.100094
 H         2.404606         2.518272         1.964360
 H         4.008310         2.223326         1.344194
 H         2.575315         2.056862        -2.155100
 H         4.212340         1.762012        -1.433858
 H         2.206746        -0.285098        -1.918665
