19
Iteration:  2611
 C        -0.003036         0.503299         0.014021
 C         1.456475         0.151779        -0.069627
 O         1.915923        -1.335718         0.023216
 C         3.111209        -0.466671         0.068743
 C         2.483850         0.496813         1.154436
 C         3.025937         1.947242         1.235369
 O         2.697453         2.580370        -0.110696
 C         2.924546         1.731327        -1.250578
 C         2.592195         0.339369        -1.057232
 H        -0.432874         0.407252         1.074222
 H        -0.071254         1.630034        -0.094996
 H        -0.629618         0.019130        -0.764115
 H         4.066805        -1.116201         0.318987
 H         2.148812        -0.135277         1.979567
 H         2.392765         2.619836         1.751055
 H         4.073960         2.003996         1.544975
 H         2.415123         2.193049        -2.044120
 H         4.044686         1.680927        -1.621063
 H         2.331385        -0.107150        -1.981813
