19
Iteration:  4207
 C        -0.014566         0.426307         0.132786
 C         1.427043         0.192671         0.049152
 O         1.845400        -1.302553         0.100830
 C         3.104271        -0.446086         0.053353
 C         2.435083         0.488706         1.069199
 C         2.943323         1.951000         1.081126
 O         2.706717         2.603985        -0.158094
 C         3.139881         1.687952        -1.266458
 C         2.604810         0.329061        -1.075680
 H        -0.540922         0.209995         1.139673
 H        -0.200436         1.478517         0.178873
 H        -0.522884        -0.032211        -0.833789
 H         4.002379        -0.921913         0.197449
 H         2.017329         0.047193         2.031867
 H         2.511951         2.666202         1.746418
 H         4.019796         1.927644         1.297296
 H         2.609689         2.258409        -1.993782
 H         4.335505         1.781445        -1.436300
 H         2.499821        -0.244586        -2.029118
