19
Iteration:  1900
 C         0.071015         0.484285         0.028535
 C         1.428106         0.094233         0.035696
 O         1.859320        -1.344693         0.070029
 C         3.159325        -0.473203         0.094873
 C         2.430983         0.459446         1.062450
 C         2.972000         1.890777         1.113139
 O         2.767055         2.598493        -0.091188
 C         3.003474         1.840331        -1.252221
 C         2.492953         0.383508        -1.051787
 H        -0.686385         0.109777         0.827822
 H         0.017921         1.531607         0.028206
 H        -0.303981         0.041593        -0.953512
 H         4.092933        -0.892429         0.200477
 H         2.018872         0.166652         2.090064
 H         2.478825         2.550282         1.921464
 H         4.000134         1.824316         1.470498
 H         2.437235         2.376050        -2.135756
 H         4.083267         1.786024        -1.538606
 H         2.391663        -0.160089        -2.032736
