19
Iteration:  2186
 C         0.060518         0.513294        -0.070193
 C         1.445772         0.136011         0.003446
 O         1.864234        -1.384711         0.077532
 C         3.115855        -0.576208         0.203445
 C         2.438048         0.464478         1.151282
 C         3.007441         1.821218         1.080879
 O         2.772709         2.611846        -0.046759
 C         2.861031         1.904907        -1.355070
 C         2.587786         0.426457        -1.040783
 H        -0.518115         0.255008         0.854146
 H         0.128265         1.517957         0.116992
 H        -0.336165         0.089838        -0.975854
 H         4.046873        -1.027748         0.192793
 H         2.167242         0.101458         2.166652
 H         2.369194         2.464673         1.914207
 H         4.122224         1.913667         1.361384
 H         2.277175         2.577587        -2.142474
 H         3.917472         1.917102        -1.747171
 H         2.681947        -0.180976        -1.999783
