19
Iteration:   918charge 0 multiplicity 1
 C        -0.050773         0.557577         0.141708
 C         1.406247         0.065279        -0.035267
 O         1.901423        -1.323847         0.019731
 C         3.134033        -0.515995         0.100769
 C         2.459745         0.437242         1.047031
 C         2.925237         1.928629         1.099899
 O         2.727059         2.601404        -0.093193
 C         3.074797         1.798063        -1.197370
 C         2.627445         0.387778        -1.123512
 H        -0.333862         0.348522         1.189542
 H        -0.141382         1.562408        -0.059391
 H        -0.822690         0.036794        -0.507928
 H         4.033063        -1.076786         0.116040
 H         2.249601        -0.011271         2.034860
 H         2.347338         2.442919         1.894488
 H         3.940295         1.914349         1.557590
 H         2.589231         2.424178        -2.093065
 H         4.136066         1.737906        -1.432790
 H         2.274478        -0.174452        -2.021851
