19
Iteration:  1569
 C        -0.008370         0.454516         0.126081
 C         1.407256         0.123691        -0.034622
 O         1.871474        -1.372248        -0.015662
 C         3.135203        -0.470868         0.050941
 C         2.425562         0.472950         1.051611
 C         2.915784         1.924072         1.137164
 O         2.787475         2.648071        -0.073733
 C         3.077866         1.788553        -1.200631
 C         2.568943         0.371135        -1.086826
 H        -0.478338         0.377575         1.169061
 H        -0.112156         1.579500        -0.082071
 H        -0.676918        -0.127130        -0.566255
 H         4.056032        -0.969404         0.233020
 H         2.076041         0.080412         2.052625
 H         2.542993         2.463923         2.052406
 H         3.981603         1.927635         1.412038
 H         2.418146         2.161897        -2.051496
 H         4.169046         1.807389        -1.348716
 H         2.461316        -0.134945        -2.064832
