19
Iteration:  4527
 C        -0.018140         0.400272         0.086860
 C         1.393173         0.121724         0.023809
 O         1.923890        -1.337328         0.095638
 C         3.105135        -0.413458         0.121460
 C         2.449064         0.558237         1.064191
 C         2.965463         1.928728         1.127720
 O         2.800373         2.604566        -0.152130
 C         3.066438         1.751448        -1.309260
 C         2.437769         0.348632        -1.057859
 H        -0.446301         0.208021         1.090186
 H        -0.143755         1.503866        -0.222279
 H        -0.603960         0.038080        -0.777664
 H         4.029028        -0.989461         0.085620
 H         2.232106         0.180702         2.076059
 H         2.490472         2.575428         1.806519
 H         3.958676         1.852019         1.432178
 H         2.602243         2.335104        -2.067740
 H         4.163245         1.532880        -1.359839
 H         2.589023        -0.309273        -1.936885
