19
Iteration:  4692charge 0 multiplicity 1
 C        -0.085102         0.530032        -0.000761
 C         1.432493         0.083330         0.034984
 O         1.914832        -1.378058         0.165156
 C         3.111264        -0.507688         0.066117
 C         2.500468         0.536888         1.050353
 C         2.999883         1.987643         1.097517
 O         2.704333         2.606462        -0.118853
 C         3.038794         1.739979        -1.246694
 C         2.518718         0.337902        -1.041653
 H        -0.522320         0.412705         1.010067
 H         0.016666         1.558871        -0.514677
 H        -0.575359         0.007808        -0.812183
 H         4.153009        -0.929676         0.054196
 H         2.384172         0.233192         2.072952
 H         2.605184         2.639253         1.905432
 H         4.002549         1.827107         1.301586
 H         2.573286         2.194050        -2.088993
 H         4.151001         1.617510        -1.257594
 H         2.349328        -0.166036        -2.019786
