19
Iteration:  1231charge 0 multiplicity 1
 C        -0.066815         0.478309         0.052684
 C         1.358814         0.062454         0.083777
 O         1.918673        -1.297628         0.050211
 C         3.078654        -0.511175         0.004807
 C         2.418658         0.418113         1.120330
 C         2.937703         1.854863         1.101531
 O         2.786969         2.655110        -0.096035
 C         3.123786         1.875288        -1.238905
 C         2.574043         0.428327        -1.068043
 H        -0.451757         0.343584         1.091387
 H        -0.180129         1.460502        -0.220094
 H        -0.597036        -0.192118        -0.625081
 H         4.096284        -1.099141         0.085010
 H         2.364597        -0.153206         2.047155
 H         2.417926         2.422014         1.814280
 H         3.949207         1.647237         1.404274
 H         2.737180         2.321276        -2.153420
 H         4.210156         1.833953        -1.469344
 H         2.310833        -0.023872        -2.008529
