19
Iteration:  2968
 C        -0.052837         0.393121         0.023061
 C         1.402018         0.122996         0.054328
 O         1.857778        -1.230649         0.121747
 C         3.122136        -0.493178         0.019221
 C         2.456501         0.512709         1.149475
 C         3.052512         1.908520         1.112924
 O         2.721981         2.592251        -0.124127
 C         3.050594         1.799011        -1.282040
 C         2.553157         0.349042        -1.086081
 H        -0.456980         0.226859         1.095263
 H        -0.264966         1.376438        -0.388454
 H        -0.409060        -0.450336        -0.698342
 H         4.108742        -0.994559        -0.049270
 H         2.177052         0.037365         2.091463
 H         2.586967         2.549249         1.901550
 H         4.193797         1.943774         1.248798
 H         2.654658         2.323369        -2.074324
 H         4.130691         1.891923        -1.168282
 H         2.237046        -0.242934        -1.904358
