19
Iteration:  4414charge 0 multiplicity 1
 C         0.008010         0.433352         0.045076
 C         1.438286         0.150971         0.059284
 O         1.859975        -1.304321         0.092335
 C         3.090225        -0.546516         0.106156
 C         2.464168         0.560314         1.088302
 C         2.993258         1.954965         1.086182
 O         2.752220         2.621334        -0.170189
 C         3.039605         1.788619        -1.266036
 C         2.583161         0.310555        -1.064933
 H        -0.278399         0.104686         1.112905
 H        -0.100670         1.531390         0.160877
 H        -0.612949         0.018156        -0.871193
 H         3.919741        -1.195230         0.295708
 H         2.036051         0.105429         2.038333
 H         2.361923         2.503978         1.878481
 H         4.036295         1.963071         1.385548
 H         2.285214         2.071690        -2.019820
 H         4.184051         1.803049        -1.525386
 H         2.222977        -0.252727        -1.955789
