19
Iteration:  3967charge 0 multiplicity 1
 C        -0.126429         0.405690        -0.031508
 C         1.386350         0.155655         0.066268
 O         1.907621        -1.315844         0.144098
 C         3.098526        -0.536071         0.168439
 C         2.520201         0.518939         1.034773
 C         3.041504         1.925248         1.090653
 O         2.836412         2.674995        -0.163635
 C         2.961569         1.795406        -1.279894
 C         2.503510         0.307041        -1.067494
 H        -0.464675         0.026216         0.952417
 H        -0.309686         1.412318        -0.083754
 H        -0.537676        -0.097417        -0.945213
 H         3.947579        -1.086381         0.561000
 H         2.247540         0.397847         2.193219
 H         2.622318         2.541122         2.057733
 H         4.165744         1.959841         1.403851
 H         2.428193         2.377590        -2.044173
 H         4.049013         1.674620        -1.584335
 H         2.571525        -0.263662        -2.069365
