19
Iteration:  2393
 C        -0.037055         0.406748        -0.081467
 C         1.427498         0.161384         0.005672
 O         1.859011        -1.294264         0.047377
 C         3.099327        -0.480134         0.120851
 C         2.468483         0.563656         1.070207
 C         3.163342         1.887842         1.146872
 O         2.654860         2.582431        -0.036823
 C         3.002037         1.797178        -1.203074
 C         2.501666         0.362187        -1.054475
 H        -0.661651        -0.097620         0.750145
 H        -0.265195         1.472116        -0.142739
 H        -0.402119        -0.201175        -0.934919
 H         4.105524        -1.022165         0.166826
 H         2.240261         0.169705         2.081983
 H         3.016857         2.486949         2.029509
 H         4.332357         1.814328         1.262232
 H         2.560954         2.272410        -2.101549
 H         4.124587         1.959702        -1.499745
 H         2.461109        -0.298183        -1.926234
