19
Iteration:  3045charge 0 multiplicity 1
 C        -0.094332         0.522653         0.081160
 C         1.388821         0.119714         0.040550
 O         1.928605        -1.303807         0.067238
 C         3.154944        -0.498240         0.132869
 C         2.484058         0.544489         1.086801
 C         2.939687         1.950079         1.104985
 O         2.714957         2.560404        -0.138510
 C         3.009628         1.739487        -1.294345
 C         2.598646         0.328858        -1.083486
 H        -0.617741        -0.071750         0.912118
 H        -0.069061         1.686694         0.202043
 H        -0.581239         0.244969        -0.931745
 H         4.052386        -1.212577         0.064818
 H         2.392534         0.039413         2.084363
 H         2.697958         2.456241         2.079827
 H         4.003561         1.979098         1.390810
 H         2.423733         2.185638        -2.059050
 H         4.071789         2.003860        -1.620077
 H         2.794194        -0.351852        -1.900728
