19
Iteration:  4868charge 0 multiplicity 1
 C        -0.016831         0.506420        -0.057468
 C         1.430543         0.125260         0.048920
 O         1.892394        -1.266640         0.167387
 C         3.145761        -0.503021         0.036541
 C         2.503957         0.529602         1.146366
 C         3.009914         1.940483         1.119181
 O         2.666155         2.578744        -0.149863
 C         3.028029         1.728870        -1.264246
 C         2.489020         0.268442        -1.036026
 H        -0.477249         0.693683         0.861845
 H         0.089505         1.528634        -0.504286
 H        -0.491929        -0.248704        -0.579288
 H         4.173547        -0.937870        -0.111591
 H         2.299216         0.150157         2.101527
 H         2.654724         2.499683         2.041970
 H         4.041957         2.101172         1.260887
 H         2.552873         2.130350        -2.108178
 H         4.176514         1.723842        -1.307504
 H         2.200220        -0.239806        -1.945622
