19
Iteration:  1183charge 0 multiplicity 1
 C        -0.116049         0.408146        -0.121231
 C         1.415549         0.190706         0.026463
 O         1.833277        -1.308728         0.124914
 C         3.127028        -0.497318         0.022658
 C         2.604916         0.454541         1.128124
 C         3.091764         1.903646         1.193392
 O         2.749900         2.599872        -0.039257
 C         2.964580         1.822924        -1.221619
 C         2.535982         0.387151        -1.067678
 H        -0.777493         0.020918         0.613331
 H        -0.148508         1.641907        -0.157522
 H        -0.346683         0.146761        -1.140032
 H         4.028488        -1.001622        -0.095177
 H         2.291480        -0.066102         2.065290
 H         2.567680         2.382827         2.013636
 H         4.206953         1.795227         1.378497
 H         2.319823         2.247983        -2.000983
 H         3.902194         1.837650        -1.634903
 H         2.386799        -0.150397        -2.018746
