19
Iteration:  4307
 C        -0.004428         0.375541        -0.019284
 C         1.431394         0.160087        -0.028089
 O         1.866713        -1.243986         0.114310
 C         3.057078        -0.513739         0.191376
 C         2.476446         0.516454         1.101938
 C         3.068417         1.919876         1.112383
 O         2.766465         2.644091        -0.113413
 C         2.990783         1.746613        -1.301221
 C         2.543456         0.342356        -1.002605
 H        -0.547967         0.080399         0.908050
 H        -0.162731         1.476312        -0.187474
 H        -0.637420        -0.176885        -0.730239
 H         4.030716        -0.985290         0.215800
 H         2.203668        -0.098447         2.033619
 H         2.599128         2.500906         1.828798
 H         4.192609         1.813185         0.986286
 H         2.447811         2.225962        -2.079889
 H         3.973730         1.902505        -1.775049
 H         2.259933        -0.152057        -1.955847
