19
Iteration:  2861
 C        -0.032364         0.406334         0.075491
 C         1.375922         0.140163        -0.001504
 O         1.862519        -1.368647         0.126791
 C         3.149017        -0.508726         0.076341
 C         2.504586         0.465930         1.116665
 C         2.927577         1.915404         1.068345
 O         2.851756         2.667008        -0.127788
 C         3.009028         1.797691        -1.257659
 C         2.504940         0.397887        -1.099102
 H        -0.527694        -0.105059         0.850083
 H        -0.077668         1.482919         0.225081
 H        -0.514118         0.135866        -0.810026
 H         4.126836        -0.878336         0.181036
 H         2.279973         0.193000         2.178414
 H         2.255448         2.415735         1.877641
 H         3.869814         2.141662         1.486054
 H         2.557475         2.342883        -2.225405
 H         4.061707         1.855259        -1.559776
 H         2.523269        -0.186605        -2.024308
