19
Iteration:  3944
 C        -0.089042         0.335938        -0.119813
 C         1.395159         0.099448         0.050236
 O         1.858372        -1.317211         0.257196
 C         3.080278        -0.424089         0.016206
 C         2.489313         0.528115         1.157715
 C         3.084295         1.943791         1.093103
 O         2.824022         2.628222        -0.156117
 C         3.043495         1.785929        -1.254372
 C         2.439303         0.366713        -1.027552
 H        -0.591875         0.071565         0.829327
 H        -0.092192         1.341253        -0.232015
 H        -0.462320        -0.100263        -1.086809
 H         4.008754        -0.930519        -0.134266
 H         2.299769         0.249174         2.294014
 H         2.831173         2.630835         2.054981
 H         4.241308         1.906625         1.186297
 H         2.383430         2.214358        -2.008727
 H         4.106861         1.804917        -1.614195
 H         2.287347        -0.243594        -1.978751
