19
Iteration:  2533charge 0 multiplicity 1
 C        -0.119536         0.379475        -0.001790
 C         1.383086         0.166463        -0.016485
 O         1.849778        -1.243699         0.114826
 C         3.143937        -0.439287         0.107587
 C         2.487701         0.445985         1.119588
 C         3.070754         1.863952         1.101965
 O         2.695780         2.570181        -0.072856
 C         3.094541         1.842795        -1.260284
 C         2.582875         0.378349        -1.067282
 H        -0.639353        -0.202341         0.882170
 H        -0.403408         1.440013        -0.023091
 H        -0.625890        -0.096989        -0.921253
 H         4.262057        -0.937026         0.013769
 H         2.074524        -0.115915         2.010307
 H         2.824492         2.603734         1.915603
 H         4.151321         1.742656         1.288485
 H         2.505796         2.358922        -2.020063
 H         4.123854         1.950549        -1.666254
 H         2.521081        -0.067299        -2.039145
