19
Iteration:  1077charge 0 multiplicity 1
 C        -0.119197         0.522545         0.058222
 C         1.363854         0.030673         0.045515
 O         1.946318        -1.327818         0.032663
 C         3.095476        -0.508752        -0.040814
 C         2.557095         0.459458         1.057516
 C         2.917776         1.967433         1.182510
 O         2.806508         2.642385        -0.080196
 C         3.152526         1.768945        -1.178441
 C         2.440684         0.372167        -1.080005
 H        -0.724679         0.286937         0.966113
 H        -0.125078         1.552394        -0.235102
 H        -0.590328        -0.023454        -0.757934
 H         4.047891        -1.162996        -0.096793
 H         2.458861        -0.019899         1.999757
 H         2.122596         2.393101         1.803120
 H         3.848862         2.262327         1.724663
 H         2.765024         2.414969        -1.928012
 H         4.123688         1.598209        -1.369959
 H         2.379593        -0.135113        -1.973932
