19
Iteration:  4085
 C        -0.034101         0.450126        -0.013655
 C         1.407625         0.158313         0.022929
 O         1.850377        -1.331117         0.128631
 C         3.098096        -0.467063         0.152502
 C         2.444902         0.535087         1.086150
 C         3.086850         1.927624         1.077900
 O         2.737127         2.619449        -0.088785
 C         2.999555         1.768587        -1.354068
 C         2.574061         0.281225        -1.073586
 H        -0.302675         0.159368         1.099258
 H        -0.356660         1.551035        -0.057727
 H        -0.698966        -0.108033        -0.836912
 H         4.033274        -0.908016         0.423662
 H         2.337934         0.112352         2.161116
 H         2.702639         2.501045         1.932042
 H         4.197911         2.068658         1.293021
 H         2.409463         2.280859        -2.102508
 H         3.975673         1.917807        -1.530581
 H         2.620929        -0.485858        -1.892767
