19
Iteration:  1150charge 0 multiplicity 1
 C        -0.050407         0.402047        -0.028481
 C         1.420440         0.107821        -0.044070
 O         1.889486        -1.303134        -0.008885
 C         3.081001        -0.506278         0.208180
 C         2.454000         0.485328         1.120196
 C         3.122814         1.829894         1.088429
 O         2.732971         2.673914        -0.044455
 C         2.944684         1.813270        -1.218061
 C         2.549759         0.390306        -1.031267
 H        -0.652447        -0.023319         0.716934
 H         0.031821         1.600209         0.155911
 H        -0.568816         0.332181        -0.972713
 H         4.007800        -0.977274         0.198416
 H         1.951700         0.111593         2.045631
 H         3.093772         2.559557         1.888030
 H         4.219982         1.648154         1.057401
 H         2.369206         2.348309        -1.991992
 H         4.056623         1.801672        -1.427422
 H         2.506836        -0.053493        -2.046935
