19
Iteration:  3491charge 0 multiplicity 1
 C        -0.145124         0.398409         0.088064
 C         1.405550         0.164782         0.068561
 O         1.877080        -1.244516         0.096295
 C         3.088172        -0.548374         0.094583
 C         2.556931         0.471969         1.097448
 C         2.997315         1.959388         1.089029
 O         2.727112         2.610653        -0.179429
 C         3.136395         1.798212        -1.287837
 C         2.577533         0.327467        -1.045243
 H        -0.681051         0.072390         1.001615
 H        -0.248747         1.536323        -0.050840
 H        -0.618395        -0.147177        -0.786889
 H         3.978796        -1.071695         0.076927
 H         2.266664         0.081885         2.114980
 H         2.326957         2.600709         1.785341
 H         3.990248         2.225742         1.443302
 H         2.488757         2.182115        -2.132870
 H         4.234792         1.794645        -1.605521
 H         2.442529        -0.443065        -1.865220
