19
Iteration:   213charge 0 multiplicity 1
 C        -0.000165         0.459692         0.039233
 C         1.401736         0.117433         0.039994
 O         1.822260        -1.372516         0.099635
 C         3.110452        -0.498527         0.031351
 C         2.541815         0.460423         1.042796
 C         2.936780         1.872268         1.112486
 O         2.823550         2.616735        -0.085450
 C         3.093675         1.838382        -1.200716
 C         2.467202         0.456204        -1.121351
 H        -0.456262         0.352532         1.038139
 H        -0.272978         1.447120        -0.233295
 H        -0.616272        -0.198522        -0.510756
 H         4.075695        -1.095924         0.126429
 H         2.255083         0.107463         2.073134
 H         2.275090         2.412740         1.808668
 H         3.960435         2.026168         1.481320
 H         2.657013         2.431430        -2.076911
 H         4.207796         1.802356        -1.310784
 H         2.212192        -0.115270        -2.043615
