19
Iteration:  1765charge 0 multiplicity 1
 C        -0.024899         0.455590         0.129556
 C         1.399009         0.106079        -0.055551
 O         1.824806        -1.316863         0.065777
 C         3.132158        -0.463369         0.109580
 C         2.522482         0.421118         1.092320
 C         2.878480         1.857279         1.092856
 O         2.767852         2.589930        -0.089664
 C         3.110246         1.885613        -1.264835
 C         2.572033         0.382762        -1.106371
 H        -0.340684         0.503038         1.118721
 H        -0.067494         1.521502        -0.124179
 H        -0.629059        -0.139662        -0.573400
 H         4.006588        -1.030695         0.106088
 H         2.354564         0.075561         2.133573
 H         2.046277         2.348610         1.733810
 H         3.935647         1.991214         1.559755
 H         2.779701         2.458129        -2.165433
 H         4.163791         1.876123        -1.445962
 H         2.439172        -0.167095        -2.026962
