19
Iteration:  1171
 C         0.013079         0.480259        -0.117803
 C         1.415611         0.103396         0.061880
 O         1.857612        -1.337939         0.113528
 C         3.105145        -0.497901         0.092493
 C         2.449752         0.431009         1.110963
 C         3.096944         1.825159         1.100283
 O         2.754542         2.600873        -0.042179
 C         2.989376         1.913333        -1.277075
 C         2.500394         0.416004        -1.026229
 H        -0.540183        -0.160644         0.607454
 H        -0.434780         1.609440         0.008676
 H        -0.334658         0.006923        -1.066481
 H         4.035664        -0.974966         0.140026
 H         2.268421        -0.016764         2.138769
 H         2.816122         2.567961         1.906853
 H         4.242418         1.827591         1.218043
 H         2.336916         2.446780        -1.995007
 H         3.966711         2.068431        -1.507478
 H         2.251294        -0.089226        -2.014504
