19
Iteration:  2883
 C        -0.112412         0.417429        -0.011382
 C         1.372371         0.067373         0.056176
 O         1.910620        -1.279761         0.172533
 C         3.182991        -0.534680        -0.003704
 C         2.536188         0.508130         1.061575
 C         2.936721         2.000778         1.221933
 O         2.884969         2.610830        -0.109884
 C         2.996737         1.787207        -1.299074
 C         2.464721         0.361134        -1.067486
 H        -0.782797        -0.117747         0.586076
 H        -0.318828         1.472610         0.036257
 H        -0.421457         0.126953        -0.967535
 H         4.102797        -1.040028         0.083825
 H         2.562977        -0.031089         2.041826
 H         2.420901         2.602983         2.050829
 H         3.945853         2.073457         1.539038
 H         2.300625         2.154819        -2.187785
 H         4.016283         1.831572        -1.745876
 H         2.169469        -0.108234        -2.023372
