19
Iteration:  3977charge 0 multiplicity 1
 C        -0.027159         0.390259         0.035569
 C         1.429156         0.124669        -0.019444
 O         1.842482        -1.281677         0.107582
 C         3.095605        -0.491738         0.156106
 C         2.463490         0.566093         1.149740
 C         3.007997         1.943431         1.093543
 O         2.829737         2.629297        -0.153139
 C         3.000805         1.768276        -1.298651
 C         2.545663         0.330952        -1.061289
 H        -0.514656         0.065250         0.983385
 H        -0.082984         1.406612         0.032169
 H        -0.575097        -0.098031        -0.818923
 H         4.005765        -1.065947         0.209175
 H         2.221303         0.128029         2.215935
 H         2.378602         2.542240         1.848736
 H         4.069874         1.874386         1.213964
 H         2.299405         2.065894        -2.086710
 H         4.081266         1.913882        -1.735412
 H         2.423347        -0.422564        -1.893681
