19
Iteration:   151
 C        -0.067454         0.486892        -0.045062
 C         1.438813         0.113057         0.058901
 O         1.918621        -1.313932         0.133653
 C         3.117216        -0.460818         0.011267
 C         2.454759         0.416552         1.095144
 C         3.033117         1.858231         1.135805
 O         2.754268         2.677680        -0.097101
 C         3.026704         1.791372        -1.199732
 C         2.437093         0.385216        -1.084018
 H        -0.625654        -0.090613         0.768604
 H        -0.066879         1.697856         0.056187
 H        -0.388129         0.269792        -1.023326
 H         3.997387        -0.936720         0.015299
 H         2.225523        -0.019429         2.013968
 H         2.811849         2.319003         2.059783
 H         4.138087         1.645773         1.102682
 H         2.657847         2.211308        -2.061137
 H         4.151880         1.654356        -1.295583
 H         2.291659        -0.103757        -1.978954
