19
Iteration:   702charge 0 multiplicity 1
 C         0.058242         0.402398         0.109802
 C         1.445087         0.174113        -0.078775
 O         1.780118        -1.286483         0.022047
 C         3.122715        -0.537078         0.076974
 C         2.483572         0.475015         1.077613
 C         2.959292         1.901121         1.137515
 O         2.688828         2.651456        -0.062261
 C         3.134866         1.789636        -1.231798
 C         2.534270         0.389096        -1.068685
 H        -0.440392         0.033210         1.045638
 H        -0.283691         1.410426         0.064006
 H        -0.551923        -0.132353        -0.769041
 H         4.065730        -1.115112         0.165981
 H         2.278372        -0.043829         1.972376
 H         2.542114         2.626642         1.837335
 H         4.053727         1.835076         1.284157
 H         2.621996         2.337639        -1.920636
 H         4.235127         1.909817        -1.495378
 H         2.361217        -0.278651        -1.908248
