19
Iteration:   601
 C        -0.014875         0.393209         0.006533
 C         1.399157         0.153974        -0.033842
 O         1.859949        -1.214832         0.058823
 C         3.084906        -0.533120         0.112711
 C         2.484837         0.444373         1.134003
 C         3.031081         1.907710         1.124540
 O         2.754262         2.582972        -0.065668
 C         3.018683         1.797100        -1.263527
 C         2.563889         0.429018        -1.081767
 H        -0.388641         0.022259         1.015863
 H        -0.259578         1.443847        -0.093345
 H        -0.720379        -0.223456        -0.710436
 H         3.990926        -1.106757         0.157151
 H         2.099169         0.021988         2.042955
 H         2.714528         2.554779         1.940190
 H         4.121755         1.804522         1.191556
 H         2.390346         2.241559        -1.982531
 H         4.149893         1.924691        -1.486358
 H         2.508527        -0.126590        -2.042614
