19
Iteration:  1532
 C        -0.171766         0.464061        -0.076147
 C         1.427048         0.180518         0.066381
 O         1.859847        -1.322824         0.134024
 C         3.137705        -0.487242         0.046404
 C         2.596751         0.440740         1.071205
 C         3.058019         1.862148         1.109011
 O         2.683426         2.598041        -0.037613
 C         3.063431         1.829781        -1.211585
 C         2.567103         0.402027        -1.048891
 H        -0.728707        -0.086428         0.619134
 H        -0.458718         1.653938        -0.199550
 H        -0.350201         0.076677        -1.066241
 H         4.087910        -1.138999         0.003529
 H         2.405301        -0.071418         1.984485
 H         2.560886         2.482862         1.942493
 H         4.110683         1.821023         1.194228
 H         2.454553         2.256744        -2.016172
 H         4.003672         2.050545        -1.628406
 H         2.329083        -0.201926        -1.936355
