19
Iteration:  2410charge 0 multiplicity 1
 C        -0.016427         0.374960        -0.026344
 C         1.457716         0.156018        -0.012501
 O         1.854435        -1.287736         0.088521
 C         3.115093        -0.504450         0.103101
 C         2.395830         0.416612         1.157530
 C         3.020046         1.839771         1.061031
 O         2.780097         2.685009        -0.075784
 C         2.979563         1.837946        -1.232260
 C         2.569131         0.433962        -1.053355
 H        -0.334803        -0.034982         0.901409
 H        -0.158807         1.435645        -0.287401
 H        -0.607498        -0.128861        -0.816712
 H         4.081190        -1.055887         0.298000
 H         2.114221         0.026579         2.155161
 H         2.831498         2.504774         1.955061
 H         4.110105         1.776453         1.027311
 H         2.416644         2.254581        -2.109442
 H         4.038342         1.867115        -1.386856
 H         2.349850        -0.104812        -1.997670
