19
Iteration:  4404
 C        -0.045381         0.454236         0.122044
 C         1.426957         0.159985        -0.049475
 O         1.793870        -1.339646         0.089920
 C         3.170654        -0.571357         0.156121
 C         2.500525         0.484985         1.065161
 C         2.937304         1.977382         1.078315
 O         2.791417         2.654667        -0.166023
 C         3.053496         1.783367        -1.279560
 C         2.552288         0.327944        -1.019832
 H        -0.462338        -0.121563         0.993016
 H        -0.308681         1.473317         0.021900
 H        -0.694339        -0.003950        -0.736832
 H         4.098997        -1.038272         0.358032
 H         2.437709         0.123682         2.150312
 H         2.406362         2.624341         1.813762
 H         4.055947         2.087764         1.425078
 H         2.518482         2.215903        -2.139305
 H         4.141740         2.001744        -1.672140
 H         2.536141        -0.252242        -1.965287
