19
Iteration:  2391
 C        -0.055664         0.411927        -0.084124
 C         1.424810         0.159011         0.008829
 O         1.849333        -1.307763         0.051348
 C         3.103342        -0.473158         0.110549
 C         2.481745         0.567043         1.072140
 C         3.176652         1.897482         1.150336
 O         2.653854         2.564410        -0.027723
 C         2.995720         1.804041        -1.211787
 C         2.509837         0.368772        -1.060166
 H        -0.641435        -0.118994         0.725087
 H        -0.262266         1.449137        -0.193369
 H        -0.445376        -0.159524        -0.965663
 H         4.157843        -1.020751         0.184685
 H         2.256658         0.216018         2.111889
 H         2.973723         2.489725         1.982380
 H         4.325992         1.867883         1.254561
 H         2.572207         2.228849        -2.059908
 H         4.150557         1.969246        -1.450611
 H         2.461555        -0.297231        -1.886865
