19
Iteration:  1410
 C        -0.197253         0.434450         0.037156
 C         1.344019         0.193734         0.092413
 O         1.909647        -1.339737         0.131555
 C         3.052026        -0.444759        -0.023572
 C         2.570929         0.458193         1.026606
 C         2.937414         1.881920         1.137266
 O         2.758556         2.583009        -0.072864
 C         3.194588         1.831637        -1.207870
 C         2.559295         0.376638        -1.127056
 H        -0.789291         0.248450         1.062930
 H        -0.224456         1.507410        -0.291444
 H        -0.544357        -0.339777        -0.818205
 H         4.178390        -0.914282        -0.167735
 H         2.724404        -0.131371         1.920748
 H         2.251034         2.306043         1.989251
 H         4.000060         2.102386         1.467306
 H         2.848123         2.387409        -2.124503
 H         4.252490         1.781242        -1.158266
 H         2.324071        -0.071469        -2.128775
