19
Iteration:  1444charge 0 multiplicity 1
 C         0.087129         0.361297         0.078829
 C         1.454645         0.137993         0.027109
 O         1.814628        -1.314514        -0.018109
 C         3.057197        -0.458049         0.044957
 C         2.444492         0.494066         1.065614
 C         2.925179         1.943202         1.152420
 O         2.816342         2.650028        -0.087511
 C         3.038699         1.776631        -1.192788
 C         2.534180         0.351614        -1.067233
 H        -0.317799         0.145951         1.067621
 H        -0.046065         1.538170        -0.074039
 H        -0.523052        -0.097369        -0.739170
 H         4.016684        -1.093246         0.025714
 H         2.262321         0.051335         2.008941
 H         2.294507         2.578869         1.887242
 H         3.995359         1.880989         1.509651
 H         2.587070         2.331680        -2.043482
 H         4.115807         1.622329        -1.307236
 H         2.267381        -0.056640        -2.048749
