19
Iteration:  4098
 C         0.029057         0.422840        -0.003722
 C         1.432228         0.094864        -0.015571
 O         1.876128        -1.321698         0.179893
 C         3.079151        -0.506414         0.205081
 C         2.424238         0.533240         1.085459
 C         3.075122         1.874638         1.086424
 O         2.791217         2.664258        -0.175207
 C         2.952091         1.833340        -1.297702
 C         2.520298         0.383430        -1.036726
 H        -0.572341         0.084819         0.925578
 H         0.017845         1.483564        -0.193197
 H        -0.469697        -0.174894        -0.885662
 H         3.982635        -1.042373         0.328983
 H         2.058430         0.088567         2.111035
 H         2.620812         2.533722         1.887305
 H         4.184482         1.594503         1.214498
 H         2.387873         2.224875        -2.136761
 H         3.905974         1.738917        -1.660616
 H         2.308354        -0.089249        -2.034826
