19
Iteration:  4106
 C        -0.007572         0.404179        -0.035450
 C         1.410016         0.084714         0.007263
 O         1.875342        -1.309268         0.194054
 C         3.145176        -0.546386         0.183974
 C         2.415960         0.485039         1.132387
 C         3.026055         1.918895         1.045584
 O         2.843369         2.647483        -0.166497
 C         2.941911         1.811277        -1.250705
 C         2.495735         0.415206        -1.067740
 H        -0.574014         0.117975         0.947870
 H        -0.137736         1.529976        -0.325010
 H        -0.535345        -0.012018        -1.021451
 H         4.124245        -1.032814         0.126965
 H         2.110700         0.292866         2.204689
 H         2.926654         2.571347         1.867556
 H         4.096921         1.874611         1.194433
 H         2.273031         2.255197        -2.014976
 H         4.005858         1.838446        -1.698098
 H         2.330441        -0.173255        -1.994180
