19
Iteration:   395
 C        -0.189139         0.572214         0.136330
 C         1.438940         0.142715        -0.043470
 O         1.963276        -1.315517        -0.000675
 C         3.169993        -0.498499         0.075099
 C         2.399392         0.390462         1.086449
 C         2.980315         1.842560         1.161654
 O         2.792936         2.575618        -0.121524
 C         3.030507         1.844739        -1.270145
 C         2.522968         0.407082        -1.077872
 H        -0.284662         0.372087         1.232534
 H        -0.189884         1.567820        -0.063881
 H        -0.888356        -0.249653        -0.420195
 H         4.199676        -0.913634         0.317022
 H         2.204331         0.007756         2.083107
 H         2.463058         2.425634         2.017958
 H         4.050976         1.995868         1.386637
 H         2.668867         2.420444        -2.126206
 H         4.177755         1.548731        -1.367679
 H         2.509154        -0.202239        -2.022690
