19
Iteration:  1942charge 0 multiplicity 1
 C        -0.022708         0.436020         0.018905
 C         1.480041         0.186451         0.066130
 O         1.811535        -1.295006         0.126191
 C         3.109128        -0.509649        -0.001676
 C         2.562519         0.505135         1.070210
 C         2.953808         1.932677         1.098414
 O         2.687765         2.568120        -0.077796
 C         3.151597         1.791284        -1.150820
 C         2.481154         0.383373        -1.161940
 H        -0.587468         0.068325         0.925619
 H        -0.356574         1.360969        -0.396508
 H        -0.409684        -0.276315        -0.768229
 H         3.955353        -1.025570        -0.103352
 H         2.417090        -0.024407         2.047219
 H         2.295283         2.352406         1.972094
 H         3.956518         2.114135         1.376979
 H         2.926926         2.380464        -2.096222
 H         4.235690         1.625867        -1.004181
 H         2.235494        -0.095792        -2.089674
