19
Iteration:  2814
 C        -0.137722         0.451016         0.073762
 C         1.413057         0.145889        -0.014336
 O         1.850286        -1.288647         0.107132
 C         3.196133        -0.486135         0.086537
 C         2.562920         0.464436         1.066110
 C         3.000086         1.905506         1.101627
 O         2.651540         2.589785        -0.162547
 C         3.114002         1.788894        -1.232737
 C         2.550943         0.410958        -1.064048
 H        -0.417145         0.002969         1.081623
 H        -0.403723         1.460168        -0.017358
 H        -0.778175        -0.236910        -0.581481
 H         4.121376        -1.187738         0.140216
 H         2.297351        -0.068605         1.973218
 H         2.519852         2.508767         1.905252
 H         4.031998         2.077228         1.412992
 H         2.854375         2.359156        -2.092087
 H         4.237959         1.807575        -1.291086
 H         2.356748        -0.154404        -1.945530
