19
Iteration:  2140charge 0 multiplicity 1
 C        -0.035258         0.475669        -0.087202
 C         1.375080         0.141226        -0.028203
 O         1.894594        -1.314970         0.186583
 C         3.085286        -0.487728         0.009488
 C         2.611583         0.445935         1.100043
 C         3.011257         1.895255         1.156898
 O         2.689805         2.554812        -0.089232
 C         3.118653         1.836639        -1.187224
 C         2.444082         0.397068        -1.082717
 H        -0.593780         0.228611         0.879656
 H        -0.154755         1.500883        -0.140304
 H        -0.419662        -0.159811        -0.924930
 H         4.058581        -1.042322         0.025742
 H         2.282135        -0.005864         2.066639
 H         2.243512         2.476812         1.830832
 H         4.064112         2.089309         1.501367
 H         2.683461         2.340953        -2.123599
 H         4.227836         1.872092        -1.319926
 H         2.175873        -0.039499        -2.016034
