19
Iteration:  3002charge 0 multiplicity 1
 C        -0.002446         0.508821         0.021357
 C         1.430601         0.095568         0.088623
 O         1.878788        -1.307361         0.129288
 C         3.151900        -0.544421        -0.042479
 C         2.552161         0.493652         1.085130
 C         2.968933         2.011308         1.114026
 O         2.705204         2.606588        -0.110632
 C         3.033237         1.800062        -1.219240
 C         2.498421         0.265002        -1.062177
 H        -0.674764         0.310981         0.892489
 H        -0.135033         1.578941        -0.360154
 H        -0.441296        -0.150796        -0.794524
 H         4.076860        -1.095542        -0.039197
 H         2.391161         0.126545         2.123461
 H         2.198253         2.561171         1.769193
 H         3.896941         2.130333         1.710822
 H         2.708410         2.297516        -2.096050
 H         4.112441         1.668223        -1.451895
 H         2.177149        -0.226203        -1.966715
