19
Iteration:  4584charge 0 multiplicity 1
 C        -0.030425         0.358898         0.014649
 C         1.401639         0.133694         0.043871
 O         1.823269        -1.255647         0.142872
 C         3.208131        -0.424429         0.055740
 C         2.478178         0.529442         1.096919
 C         2.963913         1.959758         1.113891
 O         2.806762         2.601196        -0.177395
 C         3.058725         1.713664        -1.239911
 C         2.470825         0.386090        -1.059724
 H        -0.564202        -0.092161         0.850166
 H        -0.291664         1.409136         0.436385
 H        -0.516653        -0.044432        -0.841801
 H         4.085971        -1.176942         0.086164
 H         2.408981         0.088463         2.089939
 H         2.334810         2.506565         1.721521
 H         3.949827         1.894841         1.533202
 H         2.706545         2.211693        -2.149317
 H         4.109378         1.590439        -1.606508
 H         2.331324        -0.244965        -1.967117
