19
Iteration:  3914charge 0 multiplicity 1
 C        -0.124216         0.389743        -0.072732
 C         1.400188         0.262138         0.018405
 O         1.876973        -1.313144         0.169136
 C         3.119287        -0.480915         0.102537
 C         2.566675         0.495819         1.152688
 C         3.086063         1.931045         1.088024
 O         2.767873         2.582280        -0.152601
 C         3.039715         1.763186        -1.260049
 C         2.470829         0.339152        -1.011192
 H        -0.666738         0.014791         0.835276
 H        -0.411761         1.424774        -0.423731
 H        -0.498180        -0.282968        -0.928890
 H         4.119744        -1.019054         0.078804
 H         2.241124         0.256189         2.208145
 H         2.596939         2.558879         1.914610
 H         4.166197         2.082418         1.297432
 H         2.400310         2.261429        -2.021390
 H         4.080780         1.806344        -1.591164
 H         2.200719        -0.260234        -1.934539
