19
Iteration:  2990charge 0 multiplicity 1
 C        -0.124816         0.457799        -0.026712
 C         1.435510         0.180435         0.078165
 O         1.861115        -1.353144         0.115097
 C         3.141015        -0.515550         0.090204
 C         2.673643         0.501191         1.079561
 C         2.963740         1.957034         1.135531
 O         2.721552         2.554269        -0.133579
 C         3.055879         1.741385        -1.239886
 C         2.480388         0.420325        -1.099485
 H        -0.538378         0.396686         1.051009
 H        -0.190294         1.527531        -0.327068
 H        -0.645820        -0.248857        -0.805292
 H         4.158416        -0.965478         0.116890
 H         2.508797         0.041934         2.060029
 H         2.202837         2.312415         1.871763
 H         3.978176         2.340172         1.298224
 H         2.584000         2.218825        -2.014953
 H         4.153763         1.845330        -1.243365
 H         2.208424        -0.052267        -2.013250
