19
Iteration:  1867
 C        -0.129579         0.442913        -0.074653
 C         1.368029         0.105460        -0.007725
 O         1.849633        -1.284439         0.059007
 C         3.158708        -0.481934         0.090817
 C         2.510564         0.501052         1.136028
 C         3.099736         1.953912         1.140206
 O         2.823404         2.607365        -0.048767
 C         2.894660         1.827176        -1.224540
 C         2.628703         0.270685        -1.038738
 H        -0.786110        -0.143519         0.663486
 H        -0.241046         1.428843        -0.049562
 H        -0.580322         0.302675        -1.105938
 H         4.068021        -0.977716         0.105164
 H         2.121548         0.102309         2.131578
 H         2.670355         2.600011         1.985462
 H         4.217648         1.804252         1.325652
 H         1.978288         2.086635        -1.852141
 H         3.837523         2.024398        -1.713220
 H         2.826055        -0.275083        -2.000256
