19
Iteration:  4875
 C         0.002113         0.526759        -0.037116
 C         1.435773         0.196241         0.070805
 O         1.883735        -1.318704         0.201046
 C         3.166247        -0.547234         0.054954
 C         2.509492         0.519148         1.113485
 C         2.992154         1.929703         1.142671
 O         2.649743         2.582025        -0.164745
 C         3.037438         1.735316        -1.291886
 C         2.528926         0.338199        -1.085794
 H        -0.556911         0.535556         0.963559
 H        -0.140697         1.478106        -0.597676
 H        -0.542300        -0.311810        -0.626297
 H         4.097724        -1.110900         0.046431
 H         2.415817        -0.049209         2.095854
 H         2.463018         2.648498         1.844288
 H         4.113131         1.994289         1.401404
 H         2.632335         2.340041        -2.175816
 H         4.083827         1.650463        -1.274255
 H         2.077298        -0.215890        -1.954206
