19
Iteration:    78
 C        -0.110276         0.458350         0.068984
 C         1.395018         0.098881        -0.075370
 O         1.912077        -1.291903         0.011771
 C         3.087209        -0.493965         0.115320
 C         2.388881         0.444767         1.114088
 C         3.125153         1.915356         1.136340
 O         2.778177         2.587370        -0.098256
 C         2.983174         1.827662        -1.234897
 C         2.567432         0.408305        -1.061657
 H        -0.371998         0.152508         1.049225
 H        -0.007493         1.499360         0.024107
 H        -0.810113         0.123006        -0.691156
 H         4.084928        -1.038446         0.284869
 H         2.201221         0.048070         2.119469
 H         2.716364         2.537057         1.961903
 H         4.178218         1.735846         1.347480
 H         2.372377         2.260887        -2.086439
 H         4.039876         1.786211        -1.466186
 H         2.558120        -0.193549        -2.011160
