19
Iteration:  4796
 C        -0.125585         0.373270        -0.083509
 C         1.390370         0.135842         0.009250
 O         1.842523        -1.309543         0.140874
 C         3.156848        -0.432366         0.138441
 C         2.544880         0.560936         1.148425
 C         3.116061         2.012937         1.145807
 O         2.808957         2.619570        -0.115987
 C         3.014377         1.717227        -1.316362
 C         2.453555         0.292423        -1.060794
 H        -0.648360        -0.150944         0.801079
 H        -0.225090         1.417785         0.221986
 H        -0.479177        -0.093458        -1.106947
 H         4.065677        -1.011985         0.038725
 H         2.166887         0.153159         2.165905
 H         2.606072         2.640855         1.841763
 H         4.077657         2.048386         1.434865
 H         2.349170         2.321621        -2.053539
 H         3.989905         1.761337        -1.673750
 H         2.316839        -0.417802        -1.934080
