19
Iteration:  4523charge 0 multiplicity 1
 C        -0.060022         0.440277         0.077344
 C         1.419855         0.140127         0.016180
 O         1.930939        -1.358906         0.092871
 C         3.115986        -0.418538         0.113219
 C         2.410216         0.557957         1.103280
 C         2.991509         1.925602         1.112849
 O         2.781384         2.599765        -0.129683
 C         3.064820         1.735590        -1.319023
 C         2.463941         0.334175        -1.061123
 H        -0.439435         0.123620         1.095518
 H        -0.088431         1.454093        -0.209800
 H        -0.692736        -0.074769        -0.754183
 H         4.054918        -0.934364         0.124518
 H         2.256219         0.131979         2.116080
 H         2.493224         2.728867         1.838182
 H         4.116096         1.907107         1.546137
 H         2.676703         2.306314        -2.220473
 H         4.107876         1.682334        -1.541719
 H         2.487664        -0.212753        -2.011350
