19
Iteration:  1957charge 0 multiplicity 1
 C         0.012995         0.354006         0.004672
 C         1.429837         0.124654         0.040617
 O         1.818464        -1.232598         0.092445
 C         3.072629        -0.514138        -0.020043
 C         2.463594         0.441877         1.101475
 C         2.974589         1.898148         1.183949
 O         2.675947         2.654000        -0.139830
 C         3.157604         1.773170        -1.213721
 C         2.513830         0.443076        -1.031014
 H        -0.171301         0.214541         1.142208
 H         0.006084         1.448521        -0.340483
 H        -0.477049        -0.271287        -0.789702
 H         4.132338        -1.100561         0.080795
 H         2.351902        -0.033844         2.108535
 H         2.562907         2.624848         1.859396
 H         4.080358         1.746845         1.181808
 H         2.839849         2.305221        -2.171466
 H         4.279129         1.728028        -1.162993
 H         2.219968        -0.099247        -2.033907
