19
Iteration:  1397
 C        -0.074617         0.432060         0.027627
 C         1.382594         0.112506         0.095660
 O         1.886491        -1.272691         0.084643
 C         3.101018        -0.456052        -0.039985
 C         2.512169         0.444383         1.090761
 C         2.988025         1.893600         1.141801
 O         2.723687         2.589543        -0.088093
 C         3.148647         1.775582        -1.177148
 C         2.495004         0.441466        -1.117026
 H        -0.762482         0.245257         1.022778
 H        -0.323263         1.408911        -0.331714
 H        -0.577937        -0.253342        -0.852289
 H         4.133275        -1.055562         0.089739
 H         2.333502         0.041929         2.127707
 H         2.451571         2.523474         1.855491
 H         4.064555         1.846808         1.378391
 H         2.873606         2.371470        -2.114417
 H         4.241105         1.724683        -1.363128
 H         2.413426        -0.093750        -2.108553
