19
Iteration:  2935
 C        -0.141466         0.360426        -0.032220
 C         1.382970         0.076448        -0.048116
 O         1.890098        -1.286547         0.105497
 C         3.087880        -0.491070         0.157277
 C         2.478321         0.473474         1.154211
 C         3.135337         1.920848         1.100981
 O         2.828302         2.696913        -0.113634
 C         2.931669         1.854715        -1.276512
 C         2.569953         0.338319        -1.044560
 H        -0.521931         0.025069         1.052677
 H        -0.431645         1.384317        -0.052374
 H        -0.888656        -0.265195        -0.735572
 H         4.034259        -1.055262        -0.012796
 H         2.166216         0.112489         2.128372
 H         2.629683         2.480818         1.927977
 H         4.316536         2.023520         1.176058
 H         2.564656         2.195809        -2.162328
 H         4.059096         1.953793        -1.518294
 H         2.490328        -0.264475        -1.898658
