19
Iteration:  4937charge 0 multiplicity 1
 C        -0.116138         0.437492         0.078492
 C         1.423333         0.165202        -0.006948
 O         1.976335        -1.355042         0.130306
 C         3.063416        -0.439576         0.144672
 C         2.395614         0.516181         1.086342
 C         3.008986         1.910371         1.043689
 O         2.797091         2.568216        -0.192583
 C         3.106744         1.790400        -1.318877
 C         2.488810         0.380940        -1.017263
 H        -0.598874        -0.036778         0.976341
 H        -0.070451         1.417523         0.466495
 H        -0.722641         0.226060        -0.805863
 H         4.061185        -0.916413         0.090456
 H         2.288763         0.300391         2.186440
 H         2.322160         2.471211         1.717933
 H         3.934852         2.001085         1.571012
 H         2.674502         2.177188        -2.276819
 H         4.259567         1.609986        -1.249596
 H         2.276623        -0.244377        -1.900580
