19
Iteration:  1572charge 0 multiplicity 1
 C        -0.024249         0.470319         0.131268
 C         1.379473         0.130898        -0.017456
 O         1.872740        -1.377167        -0.014235
 C         3.140564        -0.492874         0.048628
 C         2.425346         0.458052         1.060521
 C         2.916176         1.924672         1.141743
 O         2.790081         2.658441        -0.093915
 C         3.059612         1.805061        -1.190994
 C         2.594506         0.367886        -1.093195
 H        -0.468524         0.397088         1.168711
 H        -0.134750         1.450342        -0.066962
 H        -0.678130        -0.130407        -0.572343
 H         4.139643        -0.900386         0.258532
 H         2.117231         0.020242         2.042584
 H         2.470716         2.405462         1.948347
 H         4.034122         1.924935         1.488623
 H         2.543067         2.202309        -2.062080
 H         4.217267         1.762651        -1.438185
 H         2.502899        -0.051512        -2.102235
