19
Iteration:   543charge 0 multiplicity 1
 C        -0.006857         0.456256         0.066342
 C         1.445742         0.197298         0.075844
 O         1.810344        -1.296899         0.076034
 C         3.128452        -0.526420        -0.020925
 C         2.573125         0.426198         1.060252
 C         2.900079         1.976437         1.182190
 O         2.745222         2.580246        -0.069652
 C         3.122126         1.783324        -1.240352
 C         2.451474         0.367978        -1.132633
 H        -0.412794         0.171905         1.019058
 H        -0.189943         1.604405        -0.243684
 H        -0.270115        -0.213630        -0.693993
 H         4.153872        -0.962319        -0.097099
 H         2.341055        -0.133598         2.034389
 H         2.204192         2.480794         1.907446
 H         3.880980         2.059653         1.644422
 H         2.751555         2.355803        -2.189213
 H         4.245980         1.700034        -1.388414
 H         2.278971        -0.218490        -2.075903
