19
Iteration:  2003charge 0 multiplicity 1
 C        -0.025399         0.410119        -0.048518
 C         1.431765         0.098415        -0.076924
 O         1.893824        -1.274940         0.127568
 C         3.146354        -0.451673         0.083585
 C         2.393763         0.439558         1.142476
 C         3.014539         1.898584         1.191483
 O         2.862766         2.615867        -0.056185
 C         2.923879         1.816831        -1.298489
 C         2.524139         0.370869        -1.048251
 H        -0.505594         0.136139         0.914680
 H        -0.136773         1.637105         0.027600
 H        -0.475839         0.056112        -0.983112
 H         4.220945        -1.132627         0.061391
 H         1.962461         0.055224         2.059057
 H         2.494416         2.566027         1.788182
 H         4.117994         1.729651         1.405439
 H         2.193066         2.250611        -1.970077
 H         3.948532         1.914461        -1.806471
 H         2.417637        -0.109976        -2.071003
