19
Iteration:  3468charge 0 multiplicity 1
 C         0.085281         0.463369         0.041680
 C         1.525883         0.125738        -0.014075
 O         1.774326        -1.348199         0.112976
 C         3.142360        -0.441780         0.157937
 C         2.450510         0.544486         1.136579
 C         2.926482         1.929929         1.040865
 O         2.754043         2.606585        -0.146409
 C         2.992149         1.770364        -1.265766
 C         2.520702         0.352302        -1.055434
 H        -0.261701        -0.171222         0.916788
 H        -0.000550         1.493676         0.335055
 H        -0.545302         0.102477        -0.884940
 H         3.990291        -1.041434         0.090311
 H         2.126079         0.088143         2.083624
 H         2.697995         2.662417         1.896856
 H         3.990974         1.897643         1.180740
 H         2.447190         2.170589        -2.197655
 H         4.106024         1.629355        -1.498936
 H         2.516200        -0.345594        -1.981358
