19
Iteration:  1792charge 0 multiplicity 1
 C        -0.060772         0.393826         0.101532
 C         1.374853         0.140916        -0.095135
 O         1.864935        -1.297392         0.031524
 C         3.112108        -0.516193         0.060068
 C         2.471881         0.507513         1.117930
 C         3.010357         1.972926         1.183222
 O         2.763067         2.632882        -0.086130
 C         3.059854         1.774655        -1.206280
 C         2.568633         0.363443        -1.098150
 H        -0.437653         0.256015         1.203557
 H        -0.432110         1.379948        -0.279387
 H        -0.612685        -0.289676        -0.622533
 H         4.035834        -1.238699        -0.087378
 H         2.166141         0.160892         2.112931
 H         2.385223         2.530807         1.853385
 H         4.082863         1.926019         1.463716
 H         2.828894         2.267029        -2.155209
 H         4.240875         1.642455        -1.334076
 H         2.496832        -0.093785        -2.133480
