19
Iteration:  4600charge 0 multiplicity 1
 C        -0.063300         0.414954         0.052362
 C         1.383083         0.084586         0.011162
 O         1.868443        -1.330512         0.141504
 C         3.113671        -0.406061         0.128608
 C         2.443867         0.514938         1.120739
 C         3.009531         1.919445         1.084722
 O         2.795752         2.626483        -0.149626
 C         3.051926         1.773284        -1.338081
 C         2.550745         0.321939        -1.051732
 H        -0.561134        -0.072101         0.936295
 H        -0.251039         1.447424         0.124249
 H        -0.502694         0.228448        -0.962771
 H         4.141753        -0.689688         0.136756
 H         2.172788         0.072378         2.105733
 H         2.609245         2.643689         1.924048
 H         4.112742         1.869182         1.186176
 H         2.441730         2.258107        -2.126529
 H         4.185827         1.764633        -1.365952
 H         2.395203        -0.186921        -2.014092
