19
Iteration:  4244
 C         0.021848         0.498690        -0.029826
 C         1.441899         0.141452         0.070887
 O         1.827567        -1.347428         0.152253
 C         3.102805        -0.531747         0.031866
 C         2.580529         0.479699         1.095022
 C         2.984199         2.056688         1.091094
 O         2.692279         2.614775        -0.128615
 C         3.021008         1.745047        -1.209972
 C         2.515039         0.290947        -1.050863
 H        -0.593168         0.090732         0.787816
 H         0.017050         1.662768        -0.224126
 H        -0.314277         0.138428        -1.004387
 H         4.106183        -1.126000        -0.070160
 H         2.380482        -0.016413         2.067082
 H         2.481140         2.542224         2.037236
 H         3.996458         2.282772         1.390772
 H         2.524652         2.070542        -2.184542
 H         4.143618         1.747276        -1.331105
 H         2.174878        -0.290289        -1.914742
