19
Iteration:  3842
 C        -0.134989         0.546064         0.031417
 C         1.440682         0.087302         0.124817
 O         1.850719        -1.318219         0.120306
 C         3.181265        -0.504673         0.072119
 C         2.569479         0.519365         1.067344
 C         2.918431         1.993792         1.100016
 O         2.704030         2.552467        -0.143354
 C         3.129096         1.714392        -1.293661
 C         2.540648         0.316557        -1.087919
 H        -0.711062         0.098837         0.820637
 H        -0.148347         1.738650         0.086214
 H        -0.648912         0.222875        -0.813718
 H         4.182694        -0.949977        -0.011446
 H         2.417677         0.107395         2.073160
 H         2.197608         2.469443         1.877149
 H         4.016889         2.250908         1.562803
 H         2.774410         2.200473        -2.214443
 H         4.134374         1.892880        -1.340130
 H         2.418311        -0.308972        -1.935098
