19
Iteration:    22
 C        -0.093352         0.404517        -0.006819
 C         1.419220         0.275706         0.084613
 O         1.780579        -1.205920         0.091908
 C         3.160806        -0.418788        -0.059914
 C         2.649338         0.461233         1.076356
 C         2.987222         1.895814         1.254763
 O         2.764393         2.500735        -0.047902
 C         3.079784         1.705282        -1.244268
 C         2.482186         0.367521        -1.160583
 H        -0.631479         0.054660         0.876407
 H        -0.585999         1.335149        -0.299731
 H        -0.358322        -0.271302        -0.722825
 H         4.105534        -0.939304        -0.049154
 H         2.547107         0.018496         2.001441
 H         2.241692         2.370034         1.894845
 H         3.970599         2.125456         1.642090
 H         2.625974         2.305016        -2.017429
 H         4.136450         1.760860        -1.439010
 H         2.253576        -0.218236        -2.011909
