19
Iteration:   557
 C        -0.125532         0.449012        -0.001293
 C         1.401926         0.113376         0.054408
 O         1.894703        -1.287175         0.126303
 C         3.165297        -0.542306        -0.103055
 C         2.575552         0.475176         1.113267
 C         2.964404         1.862689         1.198746
 O         2.734422         2.636739        -0.148044
 C         3.137123         1.787633        -1.197201
 C         2.469741         0.419039        -1.043682
 H        -0.656978         0.418168         0.974913
 H        -0.265272         1.514268        -0.252968
 H        -0.888434        -0.047992        -0.711756
 H         3.993438        -1.228904        -0.274292
 H         2.637914         0.070647         2.118622
 H         2.147248         2.317838         1.774883
 H         3.943885         2.152977         1.530420
 H         2.911743         2.319915        -2.078651
 H         4.256397         1.640176        -1.073642
 H         2.041598         0.024037        -2.007211
