19
Iteration:  1796
 C        -0.084507         0.365416         0.086572
 C         1.377452         0.146245        -0.099932
 O         1.863603        -1.302558         0.016993
 C         3.110827        -0.489456         0.097832
 C         2.512848         0.496885         1.120694
 C         3.048330         1.994774         1.168283
 O         2.765528         2.621263        -0.088105
 C         3.058176         1.782160        -1.188017
 C         2.535270         0.357664        -1.104799
 H        -0.472047         0.178586         1.045853
 H        -0.469495         1.449414        -0.414260
 H        -0.726687        -0.171376        -0.588088
 H         3.983748        -1.197454        -0.111628
 H         2.245411         0.186808         2.129378
 H         2.383102         2.463231         1.893007
 H         4.076075         2.019458         1.486659
 H         2.797876         2.370315        -2.070913
 H         4.172015         1.516048        -1.249244
 H         2.490315        -0.205409        -2.045099
