19
Iteration:  1846charge 0 multiplicity 1
 C        -0.008729         0.369906        -0.169940
 C         1.405912         0.154501         0.005810
 O         1.837431        -1.307498         0.168252
 C         3.088599        -0.505970         0.105439
 C         2.542605         0.479173         1.097177
 C         3.116783         1.904361         1.146634
 O         2.804236         2.637144        -0.041764
 C         2.957246         1.860782        -1.254500
 C         2.444458         0.381369        -1.074501
 H        -0.508472        -0.263549         0.630275
 H        -0.288558         1.331317        -0.129288
 H        -0.494667         0.057839        -1.100454
 H         4.022817        -1.052880         0.261774
 H         2.385080         0.132542         2.136638
 H         2.654870         2.459383         1.983520
 H         4.229919         1.781339         1.435586
 H         2.302650         2.354270        -1.989191
 H         3.971681         1.775203        -1.528707
 H         2.143283        -0.025523        -2.085728
