19
Iteration:  1782
 C        -0.037110         0.415128         0.102139
 C         1.449708         0.142583        -0.002920
 O         1.845718        -1.289514         0.063981
 C         3.093362        -0.552954        -0.007411
 C         2.394325         0.505591         1.054168
 C         2.906562         1.909828         1.165395
 O         2.766070         2.636040        -0.097477
 C         3.134242         1.794739        -1.237539
 C         2.599461         0.385602        -1.088434
 H        -0.222209         0.270929         1.228018
 H        -0.275203         1.529180        -0.125389
 H        -0.573723        -0.412586        -0.417301
 H         4.133879        -1.057844         0.220631
 H         2.154325        -0.033421         1.961480
 H         2.515713         2.546435         1.901254
 H         3.955481         1.897813         1.416991
 H         2.562229         2.203105        -2.076253
 H         4.281438         1.941697        -1.391763
 H         2.436324        -0.083721        -2.104270
