19
Iteration:  1422
 C        -0.149875         0.421579         0.020877
 C         1.396776         0.151935         0.021883
 O         1.877466        -1.340190         0.126833
 C         3.147747        -0.522237        -0.053237
 C         2.579514         0.466033         1.055344
 C         2.945927         1.932408         1.178291
 O         2.769334         2.621848        -0.075734
 C         3.168821         1.830408        -1.206259
 C         2.472751         0.395134        -1.122709
 H        -0.503408         0.229147         1.056022
 H        -0.460349         1.503629        -0.178348
 H        -0.794381        -0.183732        -0.671668
 H         4.121207        -1.141513        -0.030846
 H         2.390351         0.045765         2.020427
 H         2.123016         2.441306         1.812259
 H         3.953723         2.065027         1.687232
 H         2.904077         2.453023        -2.084547
 H         4.224672         1.635533        -1.182728
 H         2.202006        -0.107582        -2.070376
