19
Iteration:  1643charge 0 multiplicity 1
 C        -0.172670         0.358801        -0.014357
 C         1.379241         0.109376         0.047423
 O         1.874751        -1.346267         0.122113
 C         3.107731        -0.470854         0.050160
 C         2.467299         0.455012         1.012899
 C         3.077692         1.901515         1.120678
 O         2.808814         2.625758        -0.072354
 C         3.075442         1.858730        -1.197766
 C         2.536845         0.446627        -1.092145
 H        -0.827214         0.070993         0.745905
 H        -0.341115         1.535923         0.053756
 H        -0.542498        -0.005792        -0.924939
 H         4.179249        -0.832446         0.203864
 H         2.450120        -0.090038         1.952902
 H         2.546609         2.467204         1.988799
 H         4.103868         1.909226         1.603884
 H         2.487661         2.276619        -2.088792
 H         4.232701         1.897928        -1.487695
 H         2.361378        -0.063306        -2.058658
