19
Iteration:  4934charge 0 multiplicity 1
 C        -0.088959         0.427945         0.101604
 C         1.423516         0.161745        -0.013534
 O         1.968727        -1.364807         0.107879
 C         3.044089        -0.438525         0.158381
 C         2.411046         0.528239         1.099825
 C         3.002510         1.928378         1.044876
 O         2.789243         2.574635        -0.195386
 C         3.114593         1.773789        -1.291088
 C         2.492665         0.356289        -1.035771
 H        -0.555253        -0.028644         0.948232
 H        -0.127844         1.581606         0.393611
 H        -0.652662         0.252242        -0.789202
 H         4.092250        -0.869786         0.047224
 H         2.249555         0.280744         2.116271
 H         2.209211         2.567157         1.713871
 H         3.975820         1.946483         1.492906
 H         2.742474         2.238668        -2.171351
 H         4.168385         1.622800        -1.333765
 H         2.227141        -0.256423        -1.887197
