19
Iteration:   248
 C        -0.109135         0.491943        -0.053650
 C         1.419351         0.148996         0.055898
 O         1.923186        -1.331220         0.066122
 C         3.144865        -0.434351        -0.004322
 C         2.557669         0.511565         1.083669
 C         2.998894         1.919499         1.151255
 O         2.833958         2.539445        -0.049504
 C         3.012913         1.741816        -1.156533
 C         2.364066         0.371623        -1.085653
 H        -0.584651         0.103569         0.872840
 H        -0.226817         1.622265        -0.197131
 H        -0.413510        -0.009728        -0.852467
 H         4.060740        -0.900935        -0.005854
 H         2.326171         0.146784         2.065349
 H         2.423896         2.439190         1.865209
 H         4.052584         1.890328         1.499058
 H         2.590112         2.263459        -1.954190
 H         4.089678         1.574260        -1.470385
 H         2.153149         0.073450        -2.067250
