19
Iteration:   837
 C        -0.153899         0.354128        -0.029228
 C         1.418053         0.157409        -0.015072
 O         1.892311        -1.282899         0.086900
 C         3.096808        -0.433683         0.142667
 C         2.433845         0.468585         1.077219
 C         3.103379         1.822499         1.146295
 O         2.811570         2.609101        -0.086919
 C         2.969083         1.864717        -1.225490
 C         2.565272         0.386783        -1.092523
 H        -0.580598        -0.123658         0.853628
 H        -0.297376         1.546008         0.159411
 H        -0.652213         0.137643        -0.938496
 H         4.095572        -1.027235         0.151373
 H         2.238136         0.211223         2.131189
 H         2.768005         2.537558         1.937289
 H         4.234994         1.590009         1.195436
 H         2.321961         2.352317        -1.868286
 H         3.983999         1.806345        -1.691225
 H         2.680986        -0.143394        -2.068417
