19
Iteration:  1208
 C        -0.018434         0.443372        -0.078815
 C         1.432990         0.149451        -0.005674
 O         1.824013        -1.327351         0.107053
 C         3.106099        -0.492579         0.012101
 C         2.624240         0.482323         1.078662
 C         3.005158         1.965963         1.208297
 O         2.785714         2.590278        -0.023228
 C         3.007158         1.809394        -1.180662
 C         2.436492         0.368583        -1.114388
 H        -0.500520         0.155153         0.833173
 H        -0.245484         1.498558        -0.249988
 H        -0.384114        -0.134800        -0.880029
 H         4.082022        -1.085199        -0.085109
 H         2.310713        -0.038142         1.968682
 H         2.334979         2.369977         1.872292
 H         4.011828         1.925399         1.601839
 H         2.581178         2.348015        -2.013686
 H         4.055691         1.699925        -1.516162
 H         2.121279        -0.111614        -1.994898
