19
Iteration:  3748
 C        -0.051024         0.392278        -0.074867
 C         1.411679         0.143576         0.012757
 O         1.852352        -1.346573         0.210897
 C         3.051825        -0.478323         0.098122
 C         2.493293         0.470516         1.125392
 C         3.081537         1.987116         1.076383
 O         2.848437         2.661354        -0.084965
 C         2.951998         1.766123        -1.305912
 C         2.509557         0.347324        -1.056286
 H        -0.505769         0.022683         0.882679
 H        -0.195972         1.375828        -0.376092
 H        -0.452907        -0.367996        -0.826057
 H         4.081773        -0.773933         0.158484
 H         2.303388         0.111436         2.174642
 H         2.544210         2.579753         1.868775
 H         4.220723         2.136958         1.406073
 H         2.368637         2.275354        -2.063742
 H         3.960497         1.684185        -1.763681
 H         2.323451        -0.073522        -2.069849
