19
Iteration:  4701charge 0 multiplicity 1
 C        -0.021193         0.470184         0.043421
 C         1.404815         0.029268         0.022971
 O         1.884930        -1.319818         0.151029
 C         3.150369        -0.485674         0.085065
 C         2.414529         0.526242         1.126258
 C         3.008506         1.963035         1.052047
 O         2.730105         2.589559        -0.139790
 C         3.090085         1.772383        -1.231315
 C         2.510669         0.351086        -1.103327
 H        -0.627454         0.625818         0.927521
 H         0.051604         1.500718        -0.114668
 H        -0.645639        -0.039219        -0.709551
 H         4.076079        -1.061833         0.071203
 H         2.202480         0.084262         2.109963
 H         2.392236         2.594740         1.833634
 H         4.057163         2.085894         1.267445
 H         2.701677         2.314965        -2.096456
 H         4.219030         1.891012        -1.511827
 H         2.284213        -0.285822        -1.989825
