19
Iteration:  2644charge 0 multiplicity 1
 C        -0.123905         0.418354         0.096551
 C         1.383286         0.128102         0.028911
 O         1.890300        -1.325149         0.111079
 C         3.128016        -0.539537         0.081110
 C         2.490653         0.423850         1.049232
 C         2.962724         1.889532         1.104432
 O         2.745052         2.669926        -0.150193
 C         3.114372         1.875154        -1.256366
 C         2.584498         0.414005        -1.086912
 H        -0.540950        -0.076964         1.024941
 H        -0.162417         1.556983        -0.011602
 H        -0.642830        -0.012983        -0.779785
 H         4.087902        -1.188761         0.223627
 H         2.288532        -0.030210         2.038882
 H         2.344502         2.438739         1.772211
 H         3.995121         2.077119         1.464843
 H         2.729664         2.226339        -2.149017
 H         4.208575         1.684254        -1.201128
 H         2.296893         0.048257        -2.056466
