19
Iteration:  3429
 C        -0.126436         0.543723        -0.094684
 C         1.388642         0.157333         0.067971
 O         1.906552        -1.376680         0.203660
 C         3.141915        -0.486591         0.080262
 C         2.601805         0.451922         1.188827
 C         3.024547         1.991730         1.086082
 O         2.700993         2.521643        -0.154893
 C         3.010831         1.815685        -1.308839
 C         2.497976         0.320471        -1.066738
 H        -0.733252        -0.046677         0.551555
 H        -0.320811         1.667218         0.194765
 H        -0.374572         0.269061        -1.078405
 H         4.238848        -0.943690        -0.049070
 H         2.446531         0.190046         2.261895
 H         2.563002         2.540583         1.886812
 H         4.260095         2.006364         1.392729
 H         2.493865         2.419414        -2.011957
 H         4.055103         1.920457        -1.558677
 H         2.421917        -0.330533        -1.894558
