19
Iteration:  1272
 C        -0.009986         0.361476         0.087970
 C         1.470001         0.203829        -0.039797
 O         1.822052        -1.244860         0.054439
 C         3.090893        -0.522627         0.038782
 C         2.464686         0.478943         1.070448
 C         2.923163         1.909185         1.172646
 O         2.748804         2.592349        -0.069538
 C         3.134271         1.783389        -1.201706
 C         2.550210         0.380079        -1.137651
 H        -0.284608         0.012244         1.057132
 H        -0.367693         1.570247        -0.047934
 H        -0.570615        -0.126475        -0.679204
 H         3.912479        -1.187683         0.065838
 H         2.131668         0.073068         2.030282
 H         2.545225         2.512275         1.962972
 H         4.068231         1.954682         1.224201
 H         2.660220         2.342605        -2.005506
 H         4.234368         1.869261        -1.330256
 H         2.303399        -0.159525        -2.019217
