19
Iteration:  3303
 C        -0.043317         0.394864        -0.003017
 C         1.429301         0.096300         0.062650
 O         1.831854        -1.314721         0.225620
 C         3.102834        -0.507499         0.057459
 C         2.548696         0.469315         1.090886
 C         2.938761         1.973572         1.132245
 O         2.835666         2.638518        -0.160711
 C         3.056038         1.797628        -1.290042
 C         2.477743         0.411069        -1.105836
 H        -0.695795         0.019201         0.850676
 H        -0.183444         1.431752        -0.221016
 H        -0.464474        -0.153008        -0.925243
 H         4.024505        -0.967616         0.010591
 H         2.522458        -0.006280         2.074837
 H         2.405109         2.545182         1.924859
 H         3.960034         1.883248         1.592926
 H         2.478912         2.400208        -2.076555
 H         4.085143         1.747842        -1.605200
 H         2.314541        -0.152009        -2.085311
