19
Iteration:   301charge 0 multiplicity 1
 C        -0.064101         0.419724        -0.007552
 C         1.417946         0.185626        -0.054507
 O         1.850871        -1.305461        -0.004236
 C         3.049180        -0.468455         0.150687
 C         2.489963         0.507537         1.100743
 C         3.185744         1.876048         1.142974
 O         2.740621         2.612820        -0.051515
 C         2.935413         1.819667        -1.261250
 C         2.553304         0.343072        -1.042403
 H        -0.394799        -0.239814         0.837096
 H        -0.164194         1.462624         0.335477
 H        -0.528883         0.180830        -0.832306
 H         3.920436        -1.016491         0.400970
 H         2.112442         0.086811         2.023616
 H         2.819978         2.381624         1.974980
 H         4.271200         1.745901         1.273057
 H         2.348278         2.239722        -2.103467
 H         4.015842         1.788641        -1.509537
 H         2.569600        -0.192025        -1.949111
