19
Iteration:   322charge 0 multiplicity 1
 C        -0.132324         0.476946        -0.036955
 C         1.429660         0.093929         0.048587
 O         1.898976        -1.297993         0.122659
 C         3.133007        -0.435209         0.026908
 C         2.456167         0.431555         1.113797
 C         3.073255         1.903384         1.108433
 O         2.755361         2.526125        -0.055118
 C         3.037012         1.841590        -1.227792
 C         2.458556         0.426252        -1.081903
 H        -0.711371        -0.038187         0.750628
 H        -0.092771         1.508571         0.094822
 H        -0.395887         0.245992        -0.982209
 H         4.088240        -0.956429        -0.079450
 H         2.414558        -0.059632         2.077390
 H         2.853733         2.601915         1.867907
 H         4.162038         1.645010         1.187780
 H         2.622328         2.381041        -2.110142
 H         4.103984         1.747732        -1.377266
 H         2.263461        -0.038693        -2.010873
