19
Iteration:  1226
 C        -0.019926         0.444917         0.045139
 C         1.370170         0.113420         0.097569
 O         1.903320        -1.311909         0.084574
 C         3.088642        -0.534210        -0.031045
 C         2.401032         0.416986         1.106616
 C         2.938274         1.826391         1.128958
 O         2.791635         2.663888        -0.092501
 C         3.105346         1.851838        -1.264561
 C         2.545876         0.434037        -1.060460
 H        -0.478284         0.288068         1.013794
 H        -0.174897         1.618614        -0.376694
 H        -0.557637        -0.140796        -0.725525
 H         4.009623        -0.974130         0.019953
 H         2.426926        -0.131439         2.075536
 H         2.391991         2.518649         1.877990
 H         4.082583         1.830208         1.455874
 H         2.642615         2.381596        -2.127895
 H         4.215719         1.864367        -1.338010
 H         2.413792         0.021594        -2.106203
