19
Iteration:  3407charge 0 multiplicity 1
 C         0.071741         0.387067        -0.068580
 C         1.493489         0.135983         0.116138
 O         1.820963        -1.233409         0.155846
 C         3.119618        -0.498897         0.070935
 C         2.561875         0.523483         1.055951
 C         2.988057         1.959080         1.101392
 O         2.699479         2.633548        -0.136930
 C         2.963362         1.689067        -1.232506
 C         2.450808         0.367750        -1.074608
 H        -0.599841        -0.001053         0.654403
 H        -0.062891         1.571729         0.045788
 H        -0.213641         0.070979        -1.028756
 H         4.009802        -1.295594         0.323961
 H         2.360579         0.204621         2.114507
 H         2.658025         2.512872         1.974698
 H         4.210253         1.673941         1.269908
 H         2.553755         2.252949        -2.015457
 H         4.016212         1.578775        -1.440128
 H         2.194267        -0.177923        -1.918760
