19
Iteration:  4162
 C        -0.084905         0.387074        -0.001428
 C         1.383424         0.132394         0.077836
 O         1.843960        -1.315943         0.196927
 C         3.089786        -0.471398         0.034119
 C         2.449677         0.533154         1.051716
 C         2.998696         1.929376         1.146061
 O         2.851627         2.642414        -0.168066
 C         3.052986         1.759414        -1.295106
 C         2.573285         0.363923        -1.044739
 H        -0.675422        -0.011145         0.941455
 H        -0.432233         1.422352        -0.012998
 H        -0.367433        -0.318969        -0.911221
 H         4.006142        -0.991677         0.027377
 H         2.596743         0.205292         2.133897
 H         2.485727         2.578478         1.830621
 H         4.062427         1.853614         1.328307
 H         2.464454         2.231214        -2.101552
 H         4.207438         1.943892        -1.452303
 H         2.214942        -0.191353        -1.958147
