19
Iteration:  4121charge 0 multiplicity 1
 C        -0.137188         0.427312        -0.127241
 C         1.386302         0.114495         0.082510
 O         1.885814        -1.337049         0.163082
 C         3.121685        -0.467797         0.094342
 C         2.514718         0.551192         1.136485
 C         3.094850         1.974462         1.113965
 O         2.858189         2.647513        -0.130216
 C         2.938460         1.790670        -1.305160
 C         2.518044         0.292405        -0.998328
 H        -0.699019         0.015164         0.786598
 H        -0.269817         1.487677        -0.211570
 H        -0.587886        -0.181562        -0.976952
 H         4.040283        -1.017806         0.171746
 H         2.422354         0.026575         2.158549
 H         2.490516         2.586310         1.839947
 H         4.184414         1.770921         1.399127
 H         2.280223         2.228562        -2.060100
 H         3.871622         1.767319        -1.736644
 H         2.372324        -0.288908        -1.943862
