19
Iteration:   497charge 0 multiplicity 1
 C        -0.107885         0.521178         0.045426
 C         1.348942         0.127274         0.027170
 O         1.943159        -1.432906         0.054553
 C         3.097631        -0.469728         0.115257
 C         2.398365         0.466910         1.126659
 C         3.058952         1.833886         1.107263
 O         2.785309         2.676893        -0.095218
 C         2.980543         1.860831        -1.264931
 C         2.628896         0.388201        -1.113894
 H        -0.636298        -0.086464         0.796495
 H        -0.164776         1.667335         0.221790
 H        -0.475358         0.320292        -0.909637
 H         3.995443        -1.047063         0.331005
 H         2.313100         0.041326         2.159352
 H         2.770289         2.326785         2.030672
 H         4.104769         1.671834         1.232776
 H         2.366727         2.177139        -2.174228
 H         4.043081         1.961555        -1.631048
 H         2.409121        -0.129202        -2.015763
