19
Iteration:  3112
 C        -0.120285         0.363315        -0.061046
 C         1.368418         0.092939         0.020194
 O         1.873682        -1.353165         0.155521
 C         3.113542        -0.429947         0.088273
 C         2.589673         0.537946         1.075122
 C         3.080778         2.010601         1.144663
 O         2.811771         2.605686        -0.095007
 C         3.011502         1.763504        -1.269358
 C         2.415614         0.369569        -1.047467
 H        -0.626526        -0.077591         0.833605
 H        -0.421322         1.554439        -0.204619
 H        -0.514063        -0.208711        -0.933569
 H         4.134963        -0.839916        -0.044181
 H         2.300104         0.205589         2.105704
 H         2.610756         2.766744         1.906259
 H         4.252191         2.045382         1.332275
 H         2.579971         2.356120        -2.061264
 H         4.105419         1.483066        -1.466934
 H         2.346338        -0.271257        -1.928867
