19
Iteration:  2646charge 0 multiplicity 1
 C        -0.125603         0.420987         0.089880
 C         1.374550         0.122416         0.027203
 O         1.900128        -1.326192         0.117147
 C         3.101409        -0.542412         0.075370
 C         2.488893         0.421019         1.044147
 C         2.969457         1.916264         1.124990
 O         2.747429         2.669583        -0.153783
 C         3.111806         1.860337        -1.249511
 C         2.572997         0.422912        -1.089799
 H        -0.481590        -0.120967         0.973756
 H        -0.232959         1.592810         0.016622
 H        -0.634539        -0.052962        -0.767584
 H         4.140273        -1.231635         0.163866
 H         2.388378        -0.001526         2.041557
 H         2.377512         2.386559         1.877906
 H         3.979710         2.103894         1.482088
 H         2.811274         2.178756        -2.225210
 H         4.266331         1.719255        -1.220310
 H         2.346639         0.026857        -2.118934
