19
Iteration:  3870charge 0 multiplicity 1
 C         0.006600         0.549828         0.051891
 C         1.487282         0.132796        -0.007769
 O         1.878054        -1.351023         0.132893
 C         3.115524        -0.486981         0.155971
 C         2.429300         0.500043         1.068516
 C         2.926070         1.919925         1.077683
 O         2.738650         2.590345        -0.159821
 C         3.049086         1.758653        -1.308250
 C         2.505667         0.351739        -1.040422
 H        -0.113948         0.128861         1.083898
 H        -0.092374         1.629129         0.012648
 H        -0.688895        -0.031476        -0.661865
 H         4.164979        -0.882799         0.103984
 H         2.225309         0.062651         2.085101
 H         2.427743         2.478551         1.872500
 H         3.897298         1.982154         1.443484
 H         2.620731         2.165854        -2.269183
 H         4.218186         1.733761        -1.319105
 H         2.481690        -0.258700        -1.987953
