19
Iteration:  3746charge 0 multiplicity 1
 C        -0.073770         0.379584        -0.078419
 C         1.417345         0.134219         0.009693
 O         1.856768        -1.329603         0.213166
 C         3.074133        -0.487646         0.091643
 C         2.498947         0.486637         1.114119
 C         3.088816         1.977524         1.084136
 O         2.849131         2.666455        -0.085474
 C         2.941032         1.766345        -1.304810
 C         2.502667         0.345113        -1.041600
 H        -0.509460         0.084279         0.855790
 H        -0.217886         1.409045        -0.387706
 H        -0.460333        -0.294210        -0.792861
 H         4.041237        -0.916542         0.125368
 H         2.311429         0.095259         2.178322
 H         2.427207         2.581602         1.856747
 H         4.214388         2.112294         1.397364
 H         2.373587         2.268715        -2.067325
 H         4.021920         1.670251        -1.760803
 H         2.361201        -0.070546        -2.031755
