19
Iteration:  2973charge 0 multiplicity 1
 C        -0.060348         0.408850         0.016922
 C         1.373085         0.143299         0.013807
 O         1.883630        -1.229382         0.131398
 C         3.109665        -0.490364         0.013199
 C         2.520577         0.475350         1.170042
 C         3.034685         1.904703         1.113848
 O         2.687306         2.602002        -0.129459
 C         3.078449         1.796032        -1.287214
 C         2.530233         0.360239        -1.046373
 H        -0.447006         0.221461         0.962872
 H        -0.335654         1.391155        -0.421944
 H        -0.430212        -0.339184        -0.601771
 H         4.030153        -1.071194        -0.022922
 H         2.399594        -0.012711         2.176322
 H         2.574503         2.573969         1.905598
 H         4.112126         1.907439         1.435211
 H         2.614751         2.405687        -2.197797
 H         4.226199         1.662211        -1.331664
 H         2.326549        -0.322749        -1.958234
