19
Iteration:   894charge 0 multiplicity 1
 C        -0.080090         0.488806         0.064441
 C         1.373685         0.166459         0.046368
 O         1.903808        -1.328093         0.094321
 C         3.141798        -0.479710        -0.031134
 C         2.584046         0.451031         1.040299
 C         2.912075         1.945257         1.187864
 O         2.703267         2.583230        -0.107458
 C         3.201549         1.750448        -1.184495
 C         2.445632         0.405121        -1.123245
 H        -0.631792         0.218054         1.041544
 H        -0.213481         1.482903        -0.118289
 H        -0.588011        -0.063542        -0.735752
 H         4.002593        -0.961026        -0.215803
 H         2.445307        -0.048014         1.966441
 H         2.309710         2.424116         1.944298
 H         3.953179         1.921419         1.582065
 H         2.814901         2.338433        -2.019794
 H         4.266096         1.621650        -1.328340
 H         2.230014        -0.193840        -2.001329
