19
Iteration:  2688
 C        -0.078262         0.331387         0.004036
 C         1.406996         0.171233         0.052750
 O         1.899515        -1.263698         0.126557
 C         3.075916        -0.459931         0.044574
 C         2.556199         0.490904         1.127150
 C         2.977181         1.883762         1.139410
 O         2.771278         2.631277        -0.139994
 C         3.132953         1.783795        -1.290100
 C         2.418793         0.435717        -1.067227
 H        -0.521425        -0.333819         0.774873
 H        -0.505537         1.402829         0.128553
 H        -0.477703        -0.029622        -0.951611
 H         4.026386        -1.008474         0.108482
 H         2.382768        -0.060483         2.054395
 H         2.408051         2.505159         1.795302
 H         4.068396         1.895818         1.449631
 H         2.706627         2.373291        -2.025580
 H         4.173939         1.476114        -1.381308
 H         2.375176        -0.186563        -1.957964
