19
Iteration:   193charge 0 multiplicity 1
 C        -0.025685         0.417989         0.138013
 C         1.413411         0.164471        -0.060873
 O         1.773098        -1.253923        -0.014954
 C         3.100075        -0.601434         0.078507
 C         2.503817         0.464644         1.117854
 C         2.975296         1.921449         1.204272
 O         2.763194         2.704468        -0.084429
 C         3.061054         1.776424        -1.281109
 C         2.656869         0.324547        -1.090807
 H        -0.367026         0.108934         1.187940
 H        -0.399830         1.467197        -0.208636
 H        -0.526185        -0.156143        -0.522860
 H         3.913630        -1.236150         0.100403
 H         2.210252        -0.031231         2.036198
 H         2.509262         2.572339         1.855289
 H         4.041136         2.025834         1.431804
 H         2.388514         2.149219        -1.960629
 H         4.080812         1.870567        -1.615806
 H         2.596726        -0.042096        -2.079858
