19
Iteration:  3865charge 0 multiplicity 1
 C         0.017787         0.549007         0.067752
 C         1.416439         0.140300        -0.019828
 O         1.916581        -1.337818         0.136865
 C         3.107279        -0.493034         0.105918
 C         2.424677         0.486207         1.105416
 C         2.914495         1.935066         1.098256
 O         2.731717         2.578301        -0.173806
 C         3.043996         1.720999        -1.300391
 C         2.564576         0.374513        -1.054329
 H        -0.308600         0.140796         1.035079
 H        -0.130957         1.650252        -0.022752
 H        -0.637319         0.079174        -0.615095
 H         4.052140        -1.009219         0.178257
 H         2.393035         0.047014         2.128831
 H         2.326117         2.568718         1.885779
 H         4.049088         2.008091         1.425762
 H         2.728017         2.207510        -2.203987
 H         4.089269         1.669418        -1.395116
 H         2.439245        -0.217934        -1.955942
