19
Iteration:  2000charge 0 multiplicity 1
 C        -0.042616         0.421640        -0.042261
 C         1.426385         0.126479        -0.066618
 O         1.910265        -1.294466         0.109039
 C         3.138727        -0.463607         0.097026
 C         2.397947         0.470886         1.112461
 C         3.021040         1.883242         1.200699
 O         2.852019         2.621027        -0.071058
 C         2.944730         1.801876        -1.281479
 C         2.552458         0.369888        -1.050773
 H        -0.580263         0.191547         0.945196
 H        -0.169541         1.540906         0.072827
 H        -0.584377        -0.003551        -0.926721
 H         4.092582        -1.009825         0.109569
 H         1.986646         0.011806         2.063085
 H         2.507596         2.526748         1.995128
 H         4.063271         1.746032         1.388954
 H         2.160726         2.191375        -2.035605
 H         3.905926         1.928105        -1.839290
 H         2.410805        -0.122476        -2.099570
