19
Iteration:  1100charge 0 multiplicity 1
 C         0.027510         0.454270        -0.024915
 C         1.471818         0.183293         0.073493
 O         1.810139        -1.313270         0.087352
 C         3.158868        -0.477738        -0.058777
 C         2.520800         0.444203         1.103465
 C         2.931990         1.889223         1.163579
 O         2.757297         2.628191        -0.081245
 C         3.101617         1.777407        -1.208198
 C         2.423606         0.397136        -1.063589
 H        -0.469040        -0.016442         0.932233
 H        -0.179859         1.462587        -0.123247
 H        -0.419659        -0.080544        -0.917887
 H         4.035817        -1.217314        -0.119368
 H         2.482909        -0.097117         2.010664
 H         2.216098         2.452988         1.780537
 H         3.896368         2.089226         1.713303
 H         2.751103         2.444440        -1.955085
 H         4.066795         1.544797        -1.350887
 H         2.151859        -0.081008        -1.981432
