19
Iteration:  1916
 C        -0.112264         0.474494        -0.030996
 C         1.397462         0.097142         0.005988
 O         1.903283        -1.303678         0.085437
 C         3.103126        -0.490967         0.008643
 C         2.562113         0.485679         1.159506
 C         2.946231         1.959181         1.172346
 O         2.737343         2.625796        -0.092797
 C         3.064767         1.767479        -1.221666
 C         2.550041         0.341463        -1.078565
 H        -0.442600         0.075527         0.872401
 H        -0.180166         1.622368        -0.211460
 H        -0.855610         0.274251        -0.773623
 H         4.113189        -1.190821        -0.039423
 H         2.688538        -0.146218         1.998655
 H         2.353822         2.386890         1.932376
 H         4.093766         2.096970         1.391035
 H         2.551601         2.142229        -2.042488
 H         4.160568         1.712960        -1.268446
 H         2.373832        -0.189726        -2.016277
