19
Iteration:   357
 C         0.030871         0.424128        -0.000808
 C         1.419370         0.133752         0.046237
 O         1.777584        -1.300521         0.074381
 C         3.150612        -0.626426        -0.078077
 C         2.627241         0.462050         1.098092
 C         2.944875         2.031370         1.185332
 O         2.797922         2.623384        -0.059181
 C         2.986041         1.805725        -1.191980
 C         2.482262         0.379305        -1.075424
 H        -0.460107         0.240440         0.936632
 H        -0.245719         1.526117        -0.171930
 H        -0.489768         0.017203        -0.713431
 H         3.943774        -1.330704        -0.065222
 H         2.392424        -0.172865         1.947950
 H         2.230752         2.553836         1.788889
 H         4.004801         2.162376         1.532947
 H         2.685729         2.420880        -2.036226
 H         4.092555         1.725543        -1.348324
 H         2.189501        -0.077492        -2.006709
