19
Iteration:  3948
 C        -0.121359         0.344385        -0.097258
 C         1.401440         0.107943         0.006978
 O         1.866863        -1.344898         0.257780
 C         3.097645        -0.458659         0.057084
 C         2.476428         0.531458         1.151605
 C         3.098185         1.966271         1.077807
 O         2.836414         2.638671        -0.138268
 C         3.033872         1.794582        -1.255826
 C         2.455029         0.376523        -1.029392
 H        -0.686802         0.074962         0.800115
 H        -0.205817         1.532652        -0.213848
 H        -0.415361        -0.131832        -1.030928
 H         4.108316        -0.967516        -0.142739
 H         2.334046         0.143707         2.156062
 H         2.699079         2.584443         1.931948
 H         4.243451         1.904818         1.128918
 H         2.375263         2.137902        -2.080028
 H         4.035466         1.832465        -1.550263
 H         2.211778        -0.211273        -1.928010
