19
Iteration:   162
 C        -0.018619         0.453756         0.027504
 C         1.375321         0.149472        -0.030327
 O         1.896212        -1.254855         0.068265
 C         3.134416        -0.475885         0.088029
 C         2.451486         0.471036         1.108567
 C         3.017912         1.814063         1.080743
 O         2.748347         2.552117        -0.075279
 C         3.037364         1.786538        -1.217972
 C         2.517544         0.433854        -1.047360
 H        -0.653539         0.042750         0.884791
 H        -0.228034         1.647561         0.135915
 H        -0.530957         0.100214        -0.840497
 H         4.024937        -0.943650         0.081734
 H         2.250691         0.064231         2.047498
 H         2.661075         2.491675         1.831392
 H         4.153558         1.756764         1.220607
 H         2.531284         2.277926        -1.972927
 H         4.114611         1.798955        -1.518232
 H         2.423864        -0.037942        -1.960665
