19
Iteration:   484charge 0 multiplicity 1
 C        -0.034849         0.460764        -0.070012
 C         1.399247         0.098220         0.023565
 O         1.929619        -1.307337         0.084000
 C         3.085680        -0.501126         0.088477
 C         2.451152         0.482725         1.088923
 C         3.097992         1.858722         1.059731
 O         2.776269         2.581157        -0.063781
 C         2.971232         1.829167        -1.208281
 C         2.449405         0.406084        -0.989320
 H        -0.680385        -0.068136         0.676535
 H        -0.054445         1.427584         0.260818
 H        -0.598383         0.470990        -1.035777
 H         4.106412        -0.826860         0.056573
 H         2.272991         0.115567         2.072565
 H         2.808840         2.553299         1.825130
 H         4.177905         1.740863         1.173364
 H         2.391263         2.411648        -1.929086
 H         4.047187         1.817204        -1.511721
 H         2.441351        -0.092088        -1.919225
