19
Iteration:  1657
 C        -0.113768         0.395838        -0.020832
 C         1.333624         0.070401         0.063196
 O         1.847315        -1.309243         0.068938
 C         3.102648        -0.442600         0.086265
 C         2.457253         0.484711         1.133016
 C         3.073467         1.821776         1.071033
 O         2.796428         2.648334        -0.053642
 C         3.036652         1.894986        -1.270342
 C         2.617040         0.396755        -1.045268
 H        -0.551881        -0.362717         0.767689
 H        -0.310736         1.438603         0.008311
 H        -0.467036        -0.013758        -1.063320
 H         3.937248        -1.059675         0.109075
 H         2.265875         0.165104         2.212153
 H         2.739734         2.502946         1.969060
 H         4.117028         1.687686         1.005613
 H         2.397095         2.474926        -2.024860
 H         4.131094         1.950963        -1.519244
 H         2.603385        -0.118881        -2.002952
