19
Iteration:  2524
 C        -0.057810         0.360886         0.049240
 C         1.455257         0.104066        -0.070570
 O         1.842562        -1.250236         0.114237
 C         3.141685        -0.440659         0.092350
 C         2.391139         0.483978         1.143722
 C         3.022948         1.876346         1.140325
 O         2.746575         2.567036        -0.075583
 C         3.086089         1.888511        -1.346389
 C         2.552256         0.429387        -1.092302
 H        -0.448735        -0.226859         0.949332
 H        -0.385911         1.428238         0.026689
 H        -0.589241        -0.037560        -0.837869
 H         4.067232        -1.252075         0.166383
 H         2.121894         0.068569         2.128272
 H         2.735830         2.428091         1.991817
 H         4.126268         1.614430         1.210136
 H         2.586532         2.402720        -2.082280
 H         4.137797         1.883873        -1.348152
 H         2.368253        -0.251408        -1.913725
