19
Iteration:  1158
 C         0.002104         0.397779        -0.069793
 C         1.437736         0.130860        -0.005383
 O         1.883922        -1.313376         0.039549
 C         3.097606        -0.523516         0.153214
 C         2.403988         0.491570         1.158467
 C         3.099013         1.822781         1.051201
 O         2.747331         2.645906        -0.049840
 C         2.949451         1.879298        -1.217161
 C         2.509577         0.445593        -1.057755
 H        -0.620645        -0.058409         0.840990
 H         0.085909         1.558797         0.132770
 H        -0.477936         0.326776        -1.155871
 H         4.012639        -1.098363         0.409938
 H         2.300526         0.111646         2.220654
 H         2.870068         2.315576         2.102908
 H         4.196696         1.466205         0.961714
 H         2.438762         2.372134        -2.068546
 H         3.931917         1.742962        -1.515206
 H         2.410801        -0.236093        -2.010697
