19
Iteration:  3004
 C         0.014626         0.503621         0.023552
 C         1.439408         0.090018         0.084988
 O         1.882656        -1.302273         0.135322
 C         3.149953        -0.544131        -0.044887
 C         2.530863         0.488133         1.083372
 C         2.956543         2.006891         1.124369
 O         2.702543         2.624156        -0.110846
 C         3.040956         1.792594        -1.220741
 C         2.489836         0.265796        -1.059561
 H        -0.625802         0.336452         0.844383
 H        -0.126579         1.583197        -0.331315
 H        -0.403741        -0.086613        -0.753395
 H         4.012845        -1.137687        -0.084077
 H         2.429680         0.106890         2.136824
 H         2.168852         2.607225         1.784834
 H         3.964764         2.076381         1.690987
 H         2.684924         2.311783        -2.162078
 H         4.078918         1.639148        -1.494642
 H         2.233682        -0.272680        -2.006180
