19
Iteration:   679
 C        -0.083424         0.448292        -0.038200
 C         1.395851         0.138218         0.015920
 O         1.891054        -1.259015         0.108579
 C         3.099076        -0.513411        -0.033084
 C         2.602206         0.468758         1.149965
 C         3.012177         1.884970         1.228597
 O         2.748450         2.586239        -0.113554
 C         2.994607         1.790809        -1.219714
 C         2.545756         0.386781        -1.078530
 H        -0.824682        -0.004291         0.728015
 H        -0.283675         1.427116         0.066627
 H        -0.591159         0.168130        -1.097183
 H         4.014074        -1.026557        -0.005227
 H         2.423363        -0.014921         2.043280
 H         2.429903         2.573819         1.763086
 H         4.076537         1.971209         1.525287
 H         2.621662         2.273205        -2.063241
 H         4.130985         1.843800        -1.327025
 H         2.225081        -0.150009        -1.944309
