19
Iteration:  4851charge 0 multiplicity 1
 C        -0.001506         0.518311        -0.084754
 C         1.379627         0.065688         0.037350
 O         1.879209        -1.373803         0.143968
 C         3.133366        -0.428866         0.169319
 C         2.530898         0.536730         1.092975
 C         3.090092         1.959891         1.051815
 O         2.688793         2.588196        -0.127827
 C         2.944877         1.730360        -1.222428
 C         2.514947         0.365397        -1.055296
 H        -0.552331         0.587083         0.931153
 H        -0.006055         1.480367        -0.578020
 H        -0.734912        -0.163822        -0.701856
 H         4.030351        -1.000845         0.326200
 H         2.464058         0.015830         2.131711
 H         2.723682         2.658116         1.761452
 H         4.247756         1.875393         1.296150
 H         2.332319         2.311118        -2.002934
 H         4.026408         1.656238        -1.398419
 H         2.515326        -0.272097        -1.982620
