19
Iteration:  4439charge 0 multiplicity 1
 C        -0.073617         0.526182        -0.101106
 C         1.414936         0.129965         0.047669
 O         1.857398        -1.325257         0.191124
 C         3.207476        -0.405288         0.110397
 C         2.574865         0.492501         1.117150
 C         3.035906         1.918678         1.109453
 O         2.680528         2.539293        -0.149364
 C         3.019349         1.801404        -1.274887
 C         2.446940         0.320017        -1.052259
 H        -0.541979         0.247450         0.837635
 H        -0.157311         1.605104        -0.036111
 H        -0.473175         0.042151        -0.993019
 H         4.118956        -0.944499         0.246279
 H         2.391998        -0.112146         2.026884
 H         2.607447         2.495828         1.860779
 H         4.223524         1.860697         1.190293
 H         2.447450         2.190604        -2.055983
 H         4.195929         1.694998        -1.393404
 H         2.311323        -0.355480        -1.919187
