19
Iteration:  4894charge 0 multiplicity 1
 C        -0.026543         0.481549         0.032148
 C         1.430883         0.184067         0.008163
 O         1.830678        -1.307187         0.203379
 C         3.063226        -0.581647         0.106663
 C         2.631317         0.484182         1.081200
 C         2.912131         1.938815         1.051020
 O         2.705344         2.579014        -0.170074
 C         3.124887         1.820355        -1.260160
 C         2.521882         0.339647        -1.088673
 H        -0.457055         0.289631         1.063938
 H        -0.188207         1.488228        -0.220694
 H        -0.442127        -0.343905        -0.621064
 H         4.030934        -1.080105         0.149187
 H         2.328861         0.149385         2.130121
 H         2.299966         2.291733         1.805098
 H         3.914444         2.468752         1.429562
 H         2.501947         2.254609        -2.092626
 H         4.303251         1.846926        -1.353150
 H         2.481931        -0.169783        -2.081509
