19
Iteration:  3883
 C         0.031014         0.433454         0.085274
 C         1.402463         0.099405        -0.025834
 O         1.796602        -1.323865         0.133306
 C         3.176098        -0.488437         0.164649
 C         2.474835         0.512969         1.078532
 C         2.978896         1.935736         1.069776
 O         2.747473         2.651824        -0.147859
 C         3.064584         1.813931        -1.230455
 C         2.546824         0.268049        -1.106692
 H        -0.546101         0.357405         1.010593
 H        -0.061113         1.576768        -0.169431
 H        -0.579366        -0.035098        -0.695380
 H         4.182933        -1.011838         0.351828
 H         1.995634         0.281184         1.977728
 H         2.418723         2.462691         1.715475
 H         4.026239         1.900950         1.228013
 H         2.471904         2.349108        -2.029380
 H         4.201462         1.841127        -1.678848
 H         2.334075        -0.323214        -1.991927
