19
Iteration:   372
 C        -0.002848         0.484088         0.119650
 C         1.487528         0.118333         0.032566
 O         1.796214        -1.291633         0.036991
 C         3.081113        -0.533384        -0.033398
 C         2.487440         0.483941         1.072414
 C         2.928692         1.911243         1.174699
 O         2.778624         2.583368        -0.082625
 C         3.073271         1.809165        -1.228435
 C         2.558828         0.382923        -1.112376
 H        -0.397804         0.278530         1.130991
 H         0.001478         1.538386        -0.172293
 H        -0.493048        -0.337921        -0.608129
 H         4.079921        -1.071025        -0.065577
 H         2.394024         0.154839         2.133803
 H         2.212727         2.408045         1.946285
 H         3.916729         2.072847         1.677689
 H         2.356700         2.164564        -1.963726
 H         4.195485         1.844692        -1.582385
 H         2.413027        -0.046472        -2.163921
