19
Iteration:  1048charge 0 multiplicity 1
 C         0.050163         0.450591         0.114441
 C         1.422091         0.111032        -0.058343
 O         1.865848        -1.282868         0.040149
 C         3.049684        -0.455972         0.069872
 C         2.394540         0.477219         1.053813
 C         2.930619         1.866355         1.153508
 O         2.805677         2.590684        -0.067405
 C         3.108463         1.806229        -1.225970
 C         2.536215         0.405649        -1.086245
 H        -0.386456         0.098854         1.133417
 H        -0.259543         1.456517        -0.019039
 H        -0.433181        -0.267655        -0.684975
 H         3.990822        -0.952617         0.201316
 H         2.118300        -0.050212         1.979048
 H         2.341957         2.517396         1.840428
 H         4.005860         1.845764         1.385027
 H         2.528966         2.489445        -1.872461
 H         4.130832         1.788823        -1.831085
 H         2.563644        -0.232200        -2.042466
