19
Iteration:   632
 C        -0.023940         0.431539        -0.090906
 C         1.397920         0.087262         0.020942
 O         1.862184        -1.289423         0.077961
 C         3.114780        -0.522467         0.106796
 C         2.481128         0.445535         1.117954
 C         3.071420         1.927334         1.154385
 O         2.808484         2.654737        -0.035265
 C         2.924316         1.779568        -1.284859
 C         2.570334         0.384862        -1.052449
 H        -0.542758        -0.063273         0.760904
 H        -0.330149         1.505838         0.220958
 H        -0.609445         0.204143        -1.039040
 H         4.035345        -1.106203         0.101331
 H         2.123943         0.133259         2.150045
 H         2.742257         2.576064         2.004328
 H         4.190537         1.831055         1.184425
 H         2.154903         2.280297        -2.032677
 H         3.915688         2.073198        -1.747875
 H         2.408015        -0.134045        -2.037138
