19
Iteration:  2713
 C        -0.113587         0.388431         0.026561
 C         1.389580         0.043802         0.051392
 O         1.874348        -1.352670         0.091477
 C         3.127214        -0.533297         0.083179
 C         2.430652         0.551503         1.065275
 C         3.069080         1.955585         1.121064
 O         2.815752         2.669314        -0.120162
 C         2.987803         1.838281        -1.263333
 C         2.606222         0.389438        -1.057607
 H        -0.687759        -0.125171         0.816788
 H        -0.370681         1.522584         0.052974
 H        -0.623919         0.037225        -0.913361
 H         4.171454        -1.085215         0.397651
 H         2.264498         0.057157         2.020856
 H         2.562620         2.630196         1.808166
 H         4.126491         1.852324         1.464061
 H         2.240286         2.293395        -1.867228
 H         4.041484         1.812697        -1.653420
 H         2.520084        -0.115186        -2.079591
