19
Iteration:  2006charge 0 multiplicity 1
 C        -0.005558         0.419903        -0.055137
 C         1.431838         0.069326        -0.070021
 O         1.872979        -1.261692         0.142983
 C         3.168344        -0.455043         0.075346
 C         2.398024         0.421400         1.165073
 C         3.011185         1.902036         1.167267
 O         2.876280         2.606316        -0.045893
 C         2.906240         1.836351        -1.309054
 C         2.496861         0.376718        -1.061469
 H        -0.412604         0.012021         0.827118
 H        -0.067189         1.525383        -0.081049
 H        -0.396397         0.124278        -1.022424
 H         4.141125        -1.107828         0.029680
 H         1.983425         0.067885         2.089787
 H         2.440216         2.681895         1.706252
 H         4.121045         1.760748         1.453101
 H         2.204553         2.357598        -1.913971
 H         3.927589         1.880717        -1.709353
 H         2.436532        -0.115494        -1.964024
