19
Iteration:  2783charge 0 multiplicity 1
 C         0.040956         0.466130        -0.066914
 C         1.412664         0.121642         0.071441
 O         1.822394        -1.400571         0.151705
 C         3.198771        -0.497296         0.007365
 C         2.577351         0.489405         1.052138
 C         3.021448         2.007374         1.145956
 O         2.701379         2.613222        -0.125028
 C         3.022108         1.778071        -1.195983
 C         2.404240         0.400885        -1.041304
 H        -0.542951         0.163966         0.811071
 H        -0.166552         1.393963        -0.386292
 H        -0.362444        -0.210457        -0.796461
 H         4.037685        -1.147162         0.056573
 H         2.354424         0.059008         2.051581
 H         2.536473         2.559697         2.065675
 H         4.094706         2.131191         1.294384
 H         2.516647         2.299803        -2.089161
 H         4.077801         1.756803        -1.229626
 H         2.187199        -0.054582        -1.968156
