19
Iteration:  2494
 C        -0.169713         0.402755         0.077657
 C         1.374875         0.096563        -0.041610
 O         1.884055        -1.360107         0.007363
 C         3.183720        -0.507511         0.026349
 C         2.487664         0.476448         1.077845
 C         2.933330         2.018294         1.161619
 O         2.869564         2.681836        -0.096202
 C         3.069758         1.760680        -1.200006
 C         2.541690         0.388664        -1.008844
 H        -0.571736        -0.029108         0.943702
 H        -0.438291         1.478939         0.237306
 H        -0.534103        -0.051636        -0.799915
 H         4.015217        -1.092583        -0.057696
 H         2.312580         0.124420         2.074427
 H         2.278951         2.510388         1.870468
 H         4.035863         2.140335         1.386107
 H         2.494063         2.157732        -2.108671
 H         4.197997         1.792290        -1.425103
 H         2.347105        -0.257105        -1.911078
