19
Iteration:   666charge 0 multiplicity 1
 C        -0.114322         0.479240        -0.112008
 C         1.389343         0.110310         0.077345
 O         1.917462        -1.309168         0.151592
 C         3.171866        -0.471579         0.000951
 C         2.528278         0.417751         1.120680
 C         2.998690         1.939081         1.159139
 O         2.769887         2.624028        -0.042849
 C         3.068613         1.791880        -1.263798
 C         2.399182         0.375680        -1.050276
 H        -0.737899        -0.116670         0.636743
 H        -0.079816         1.532233         0.066183
 H        -0.356607         0.297668        -1.237705
 H         4.035158        -1.026056        -0.199381
 H         2.586210        -0.102636         2.061841
 H         2.584604         2.354299         2.064945
 H         4.113905         1.957033         1.341519
 H         2.406896         2.298992        -2.027523
 H         4.075438         1.705373        -1.686370
 H         2.319466        -0.094649        -2.028766
