19
Iteration:  2907
 C         0.024529         0.375357        -0.058130
 C         1.403276         0.125454         0.073210
 O         1.901293        -1.295443         0.135060
 C         3.035488        -0.412181         0.096962
 C         2.489797         0.515194         1.079309
 C         3.039627         1.919336         1.114183
 O         2.884730         2.564447        -0.101377
 C         2.927807         1.835797        -1.267610
 C         2.448795         0.372722        -1.038145
 H        -0.499281        -0.194822         0.637532
 H        -0.434049         1.406807        -0.043103
 H        -0.335602        -0.106134        -0.930110
 H         4.009061        -0.874771         0.065789
 H         2.469049         0.058924         2.111998
 H         2.474574         2.447925         1.933289
 H         4.041482         2.000404         1.506343
 H         2.346164         2.189704        -2.248065
 H         3.971563         1.786536        -1.678717
 H         2.199994        -0.245382        -1.979276
