19
Iteration:  1977
 C        -0.136142         0.454328         0.026902
 C         1.368917         0.140776        -0.015471
 O         1.897461        -1.367879        -0.007257
 C         3.111934        -0.486676         0.136522
 C         2.476351         0.482623         1.099602
 C         3.052603         1.937223         1.065191
 O         2.761826         2.612855        -0.055346
 C         3.045104         1.840845        -1.211215
 C         2.581822         0.338111        -1.053664
 H        -0.599337         0.253229         1.086747
 H        -0.402812         1.481073        -0.105957
 H        -0.531924        -0.263583        -0.759461
 H         3.988004        -0.990382         0.323996
 H         2.347178         0.173947         2.191078
 H         2.455778         2.562728         1.849531
 H         4.081995         1.895523         1.321159
 H         2.614912         2.412955        -2.132445
 H         4.140135         1.855372        -1.404072
 H         2.596531        -0.238934        -2.039534
