19
Iteration:  1853
 C        -0.089936         0.391358        -0.148480
 C         1.428633         0.105104        -0.012613
 O         1.813106        -1.318353         0.130162
 C         3.127155        -0.482006         0.122483
 C         2.515684         0.528048         1.055912
 C         3.149055         1.914396         1.178954
 O         2.801084         2.633583        -0.045856
 C         2.921819         1.789271        -1.224702
 C         2.540265         0.387582        -1.068501
 H        -0.634449        -0.168533         0.606967
 H        -0.329413         1.539650         0.048312
 H        -0.451052        -0.024700        -1.138106
 H         3.993602        -1.054957         0.248890
 H         2.518997         0.063969         2.091931
 H         2.668309         2.504565         2.059613
 H         4.188903         1.936061         1.413143
 H         2.166985         2.289337        -1.926175
 H         3.978813         1.855023        -1.699661
 H         2.208322        -0.038107        -1.980204
