19
Iteration:  3665
 C        -0.085504         0.441996         0.106264
 C         1.375306         0.100196        -0.005935
 O         1.832090        -1.302770         0.141887
 C         3.103913        -0.565190         0.122412
 C         2.527771         0.529192         1.092424
 C         3.019410         1.947506         1.124265
 O         2.692896         2.603743        -0.200754
 C         3.100086         1.799480        -1.285191
 C         2.634461         0.357573        -1.085195
 H        -0.557606        -0.029694         1.008734
 H        -0.290542         1.494505         0.234929
 H        -0.744245         0.110032        -0.765307
 H         4.236854        -0.902700         0.090065
 H         2.150119         0.224907         2.074953
 H         2.390211         2.586668         1.858846
 H         4.178960         1.996113         1.187307
 H         2.574911         2.248481        -2.194274
 H         4.258726         1.845139        -1.395947
 H         2.541308        -0.170740        -2.079924
