19
Iteration:  3327
 C        -0.149164         0.402655         0.016111
 C         1.386577         0.143150         0.053115
 O         1.876559        -1.273938         0.162234
 C         3.149699        -0.526914         0.060060
 C         2.563123         0.474786         1.065828
 C         2.957362         1.984097         1.077800
 O         2.855720         2.643624        -0.127601
 C         3.029499         1.781133        -1.237143
 C         2.530055         0.338426        -1.097391
 H        -0.605088         0.286537         1.057341
 H        -0.375927         1.326148        -0.455554
 H        -0.621279        -0.444308        -0.622638
 H         4.011126        -1.199522         0.041840
 H         2.479480         0.071670         2.101513
 H         2.269510         2.470866         1.833068
 H         3.882421         2.069363         1.614839
 H         2.567516         2.405938        -2.051668
 H         4.096081         1.751258        -1.425127
 H         2.226417        -0.266043        -2.001372
