19
Iteration:  4733charge 0 multiplicity 1
 C        -0.092705         0.405383         0.147285
 C         1.397148         0.262060         0.011220
 O         1.858790        -1.292483         0.060496
 C         3.151815        -0.547500         0.101657
 C         2.462753         0.552569         1.062768
 C         2.922265         2.003965         1.051280
 O         2.813865         2.581915        -0.148186
 C         3.119960         1.731645        -1.258371
 C         2.596917         0.280763        -1.036752
 H        -0.460680        -0.255920         0.980633
 H        -0.435414         1.373737         0.162265
 H        -0.690439        -0.010811        -0.702149
 H         4.026467        -1.162648         0.051585
 H         2.166684         0.211309         2.083243
 H         2.131356         2.504800         1.810652
 H         3.998191         2.330308         1.551657
 H         2.397177         2.101604        -2.026368
 H         4.262258         1.743212        -1.508242
 H         2.396734        -0.180735        -2.046025
