19
Iteration:  4248
 C         0.012109         0.514353        -0.042258
 C         1.469798         0.117859         0.088705
 O         1.837221        -1.320378         0.147084
 C         3.135219        -0.565107         0.034115
 C         2.534170         0.501184         1.103630
 C         2.980503         2.028318         1.087482
 O         2.705286         2.616661        -0.142964
 C         2.992859         1.776193        -1.211207
 C         2.505432         0.257195        -1.044205
 H        -0.616033         0.209014         0.780040
 H        -0.054679         1.565579        -0.171925
 H        -0.182713         0.124698        -1.034458
 H         4.070771        -1.104140        -0.122809
 H         2.417242        -0.010072         2.037485
 H         2.586761         2.544690         1.964665
 H         4.071595         2.316869         1.439240
 H         2.503138         2.148419        -2.111181
 H         4.041556         1.718991        -1.173889
 H         2.163370        -0.266193        -1.958627
