19
Iteration:  4839
 C        -0.074994         0.510111        -0.079347
 C         1.445218         0.114807         0.005491
 O         1.893962        -1.360197         0.184814
 C         3.136171        -0.547953         0.159671
 C         2.458535         0.512767         1.139177
 C         3.088721         1.925625         1.111067
 O         2.724113         2.625764        -0.136871
 C         2.929852         1.862905        -1.326632
 C         2.547114         0.282854        -1.016076
 H        -0.519881         0.503050         0.961134
 H        -0.150123         1.531706        -0.472703
 H        -0.508032        -0.257113        -0.800731
 H         4.136858        -0.962617         0.279980
 H         2.274194         0.192700         2.227671
 H         2.742614         2.438531         1.943957
 H         4.271756         1.900818         1.014259
 H         2.445549         2.239261        -2.275507
 H         4.002261         1.970258        -1.676807
 H         2.291626        -0.192025        -1.975337
