19
Iteration:  1050charge 0 multiplicity 1
 C         0.042165         0.451866         0.117655
 C         1.427695         0.109228        -0.058091
 O         1.866620        -1.291753         0.046582
 C         3.050773        -0.458217         0.059937
 C         2.403891         0.470732         1.049409
 C         2.912223         1.862637         1.154383
 O         2.811425         2.597525        -0.071296
 C         3.110722         1.798572        -1.221979
 C         2.533703         0.410829        -1.080552
 H        -0.357309         0.124710         1.057500
 H        -0.268377         1.513395        -0.033386
 H        -0.425029        -0.239997        -0.634642
 H         4.022075        -0.873075         0.198188
 H         2.121933        -0.066204         2.013768
 H         2.345352         2.519305         1.863635
 H         3.973723         1.844577         1.356302
 H         2.560215         2.535448        -1.902918
 H         4.123042         1.788375        -1.809803
 H         2.528478        -0.235813        -2.056058
