19
Iteration:  3264
 C        -0.126552         0.458720         0.053774
 C         1.350344         0.138523         0.009030
 O         1.882267        -1.340720         0.133631
 C         3.129821        -0.413529         0.143313
 C         2.454856         0.472275         1.130593
 C         3.003761         1.902528         1.065568
 O         2.754077         2.581036        -0.138707
 C         3.038511         1.835506        -1.322077
 C         2.646151         0.343130        -1.049470
 H        -0.678925        -0.158417         0.749966
 H        -0.290305         1.503609         0.305685
 H        -0.478592         0.249407        -0.952920
 H         4.063973        -1.093915         0.322355
 H         2.391941        -0.029367         2.123454
 H         2.733989         2.639924         1.830035
 H         4.219904         1.864512         0.979987
 H         2.442285         2.175098        -2.148386
 H         4.124749         1.947790        -1.639050
 H         2.569670        -0.239299        -1.949040
