19
Iteration:  1390
 C        -0.043898         0.399218        -0.007464
 C         1.441829         0.103063         0.052310
 O         1.844109        -1.273958         0.043114
 C         3.145824        -0.462303         0.010730
 C         2.470963         0.473728         1.117726
 C         3.017340         1.905466         1.155338
 O         2.729636         2.591681        -0.088180
 C         3.090550         1.801958        -1.210818
 C         2.468985         0.396256        -1.058078
 H        -0.400712         0.223512         0.957662
 H        -0.233752         1.482908        -0.247298
 H        -0.589554        -0.165563        -0.697052
 H         4.017123        -1.129283        -0.015773
 H         2.197740         0.075664         2.074924
 H         2.511936         2.615142         1.916949
 H         4.141080         1.907268         1.350361
 H         2.918117         2.386435        -2.093870
 H         4.193961         1.659253        -1.301230
 H         2.207957         0.002439        -2.033528
