19
Iteration:   795charge 0 multiplicity 1
 C        -0.123894         0.455377        -0.057048
 C         1.372823         0.099376        -0.022342
 O         1.890011        -1.308276         0.087851
 C         3.121836        -0.537279         0.068518
 C         2.585036         0.424118         1.135048
 C         3.033231         1.949030         1.150215
 O         2.855012         2.653101        -0.051174
 C         2.919997         1.832456        -1.256718
 C         2.527519         0.399976        -1.007729
 H        -0.822110        -0.032268         0.642064
 H        -0.210950         1.583530        -0.112144
 H        -0.332088         0.007540        -0.969443
 H         4.072533        -1.073300        -0.055758
 H         2.299721        -0.104518         2.097830
 H         2.406612         2.443773         1.925470
 H         4.088899         1.846599         1.337867
 H         2.170863         2.186365        -2.093792
 H         3.967594         1.893795        -1.636417
 H         2.451575        -0.191470        -1.928647
