19
Iteration:  4599
 C        -0.067612         0.415946         0.053097
 C         1.389319         0.079590         0.016433
 O         1.860324        -1.324437         0.141260
 C         3.120310        -0.400174         0.122772
 C         2.445529         0.517017         1.111239
 C         3.003323         1.918748         1.096405
 O         2.798052         2.624878        -0.153673
 C         3.054176         1.772453        -1.340894
 C         2.545589         0.323479        -1.041214
 H        -0.522100        -0.111836         0.920410
 H        -0.234300         1.425832         0.088369
 H        -0.496810         0.242585        -0.938669
 H         4.162332        -0.702307         0.087410
 H         2.177190         0.091123         2.103058
 H         2.634032         2.608402         1.916833
 H         4.049201         1.871060         1.181998
 H         2.436632         2.257832        -2.130487
 H         4.199296         1.744363        -1.353247
 H         2.418061        -0.210213        -1.983501
