19
Iteration:  4535
 C        -0.008230         0.396784         0.070172
 C         1.385668         0.058852         0.024648
 O         1.895084        -1.270290         0.128710
 C         3.101443        -0.457246         0.093351
 C         2.489270         0.509065         1.048689
 C         2.914319         1.964125         1.087024
 O         2.847385         2.617538        -0.180797
 C         3.056284         1.756192        -1.216350
 C         2.466280         0.385642        -1.083742
 H        -0.582333         0.242818         1.058519
 H        -0.095443         1.462071         0.086930
 H        -0.555239        -0.201305        -0.793856
 H         4.055487        -0.871846         0.138491
 H         2.244241         0.131802         2.069097
 H         2.263551         2.451662         1.960493
 H         4.097854         1.909765         1.313379
 H         2.659270         2.286853        -2.123098
 H         4.079424         1.569666        -1.353717
 H         2.341903        -0.345056        -1.905253
