19
Iteration:  3611charge 0 multiplicity 1
 C        -0.093521         0.518567        -0.087857
 C         1.318330         0.029982         0.075243
 O         1.933946        -1.308422         0.190368
 C         3.104801        -0.519902         0.108251
 C         2.598305         0.514045         1.102049
 C         3.065622         1.952991         1.095785
 O         2.735687         2.604832        -0.182988
 C         2.985387         1.829288        -1.277020
 C         2.497023         0.308047        -1.033068
 H        -0.707433        -0.028260         0.612385
 H        -0.313493         1.522378         0.171400
 H        -0.618715         0.259597        -0.982483
 H         3.995011        -1.094046         0.197767
 H         2.649873         0.035924         2.088838
 H         2.664053         2.550293         1.970692
 H         4.069958         2.138121         1.467539
 H         2.660929         2.383621        -2.202888
 H         4.052059         1.807554        -1.394276
 H         2.367628        -0.365353        -1.940391
