19
Iteration:  1623charge 0 multiplicity 1
 C         0.019937         0.402224        -0.017890
 C         1.392739         0.119900        -0.036964
 O         1.899050        -1.275599         0.075165
 C         3.105374        -0.471493        -0.055769
 C         2.523711         0.522470         1.123099
 C         2.942667         1.973796         1.208838
 O         2.855266         2.604715        -0.039138
 C         3.024844         1.773107        -1.196622
 C         2.394262         0.372177        -1.100693
 H        -0.373423         0.033610         0.995173
 H        -0.422638         1.466149        -0.059031
 H        -0.508547        -0.201699        -0.828582
 H         3.875693        -1.201665        -0.148352
 H         2.354144        -0.059143         2.079618
 H         2.256497         2.448893         2.051485
 H         3.932801         1.998117         1.621623
 H         2.861874         2.226181        -2.234271
 H         4.106694         1.589298        -1.280075
 H         2.255455        -0.314081        -1.956124
