19
Iteration:  3996charge 0 multiplicity 1
 C        -0.038295         0.498180         0.059095
 C         1.424658         0.153953         0.053432
 O         1.828386        -1.325153         0.126383
 C         3.201421        -0.454495         0.090155
 C         2.429711         0.451070         1.092291
 C         2.960959         2.001580         1.153685
 O         2.772085         2.511862        -0.210018
 C         3.013297         1.767652        -1.314979
 C         2.569167         0.386251        -1.058636
 H        -0.307584         0.075076         1.067664
 H        -0.264398         1.644000         0.226796
 H        -0.450845        -0.111335        -0.788048
 H         4.130110        -0.956179         0.393584
 H         2.151651         0.055157         2.074778
 H         2.333722         2.613088         1.704956
 H         4.083995         1.935915         1.421258
 H         2.514488         2.250530        -2.177103
 H         4.127785         1.623223        -1.612694
 H         2.586249        -0.218034        -1.970139
