19
Iteration:  3809
 C         0.021081         0.399652        -0.000584
 C         1.437119         0.114557         0.080054
 O         1.829475        -1.274804         0.181140
 C         3.113133        -0.614369         0.067515
 C         2.454788         0.557744         1.081680
 C         3.025349         2.016756         1.093292
 O         2.707918         2.628832        -0.111177
 C         3.074212         1.742307        -1.311058
 C         2.540603         0.358813        -1.109422
 H        -0.530319        -0.066756         0.782903
 H        -0.303706         1.512828         0.175570
 H        -0.366181         0.125453        -0.921218
 H         4.070434        -1.195221         0.057459
 H         2.176998         0.237247         2.098424
 H         2.469694         2.560353         1.908542
 H         4.126141         1.942062         1.294023
 H         2.670171         2.313055        -2.145818
 H         4.111090         1.764583        -1.330206
 H         2.226558        -0.212536        -1.948515
