19
Iteration:  4462
 C        -0.047641         0.483166        -0.117409
 C         1.401541         0.147458         0.062894
 O         1.889209        -1.308532         0.214627
 C         3.107960        -0.593310         0.053306
 C         2.584646         0.532006         1.133291
 C         3.069760         1.984272         1.088323
 O         2.667875         2.604617        -0.101747
 C         2.964030         1.785467        -1.248591
 C         2.494152         0.333350        -1.049846
 H        -0.755078         0.350906         0.663260
 H        -0.107248         1.589512        -0.292767
 H        -0.203114        -0.060212        -1.022577
 H         4.039968        -1.205010        -0.033538
 H         2.509157         0.040777         2.112765
 H         2.688074         2.544135         1.861958
 H         4.271334         1.865594         1.126697
 H         2.374324         2.124995        -2.061185
 H         4.146512         1.721149        -1.309869
 H         2.468741        -0.226265        -1.998956
