19
Iteration:  2778charge 0 multiplicity 1
 C        -0.005996         0.467334        -0.109965
 C         1.427504         0.114100         0.072558
 O         1.838282        -1.379375         0.150018
 C         3.211980        -0.477298         0.001808
 C         2.580393         0.455310         1.084124
 C         3.050117         1.995761         1.163141
 O         2.707876         2.618329        -0.113786
 C         2.979380         1.803386        -1.218761
 C         2.401591         0.371654        -1.015109
 H        -0.458209         0.262659         0.895292
 H        -0.299066         1.602903        -0.346204
 H        -0.439681        -0.210038        -0.907194
 H         4.120582        -1.180759         0.156352
 H         2.437565         0.151992         2.123173
 H         2.391554         2.422987         1.872802
 H         4.152749         2.138700         1.272335
 H         2.561890         2.177696        -2.116924
 H         4.122103         1.677255        -1.316759
 H         2.176250        -0.080139        -2.035686
