19
Iteration:  3036
 C        -0.023990         0.538632         0.070658
 C         1.431036         0.099933        -0.007005
 O         1.910751        -1.351895         0.128962
 C         3.180768        -0.498041         0.135404
 C         2.442798         0.489577         1.038710
 C         2.990708         1.916500         1.083518
 O         2.711689         2.578944        -0.118039
 C         3.015545         1.835361        -1.276622
 C         2.536257         0.320530        -1.076058
 H        -0.529950         0.141355         0.957050
 H        -0.151959         1.707094         0.218015
 H        -0.566391         0.252711        -0.839214
 H         4.089645        -1.061978         0.209403
 H         2.341213         0.086243         2.093003
 H         2.135716         2.512286         1.590939
 H         4.054871         2.055602         1.350829
 H         2.370273         2.337617        -2.016646
 H         4.105364         1.799520        -1.494339
 H         2.562270        -0.347500        -1.960616
