19
Iteration:  4837charge 0 multiplicity 1
 C        -0.072525         0.494600        -0.073539
 C         1.450863         0.130470         0.015153
 O         1.898574        -1.346051         0.193410
 C         3.128901        -0.564900         0.156439
 C         2.455337         0.499398         1.148884
 C         3.081321         1.917304         1.107643
 O         2.725184         2.640602        -0.132538
 C         2.937742         1.865211        -1.336476
 C         2.546684         0.284446        -1.024742
 H        -0.498667         0.442331         0.900565
 H        -0.203429         1.520652        -0.512599
 H        -0.518158        -0.161417        -0.787422
 H         4.159943        -0.995562         0.231767
 H         2.186721         0.231836         2.163466
 H         2.695481         2.440198         1.948691
 H         4.324623         1.855458         0.980059
 H         2.424742         2.204082        -2.211396
 H         4.044880         2.028884        -1.763561
 H         2.307798        -0.249839        -1.929002
