19
Iteration:  1018
 C        -0.149459         0.407893        -0.035504
 C         1.380580         0.153421        -0.015436
 O         1.837032        -1.293182         0.035681
 C         3.094962        -0.492603         0.105680
 C         2.542430         0.439326         1.123167
 C         3.079812         1.911236         1.120171
 O         2.774255         2.648907        -0.069126
 C         3.060342         1.851359        -1.226991
 C         2.560222         0.371893        -1.011794
 H        -0.516170        -0.143426         0.766957
 H        -0.596990         1.442271        -0.062343
 H        -0.464029        -0.020025        -1.003723
 H         4.057525        -1.066504         0.163874
 H         2.378880        -0.088441         2.132759
 H         2.731134         2.468430         2.032001
 H         4.203538         1.881148         1.242090
 H         2.144078         2.168572        -1.919095
 H         4.101360         1.728306        -1.590369
 H         2.599186        -0.215345        -2.030093
