19
Iteration:  3705
 C         0.012622         0.423630        -0.009656
 C         1.420081         0.144108         0.027500
 O         1.888539        -1.322657         0.157155
 C         3.129367        -0.450742         0.087974
 C         2.457769         0.527992         1.107703
 C         3.027367         1.911456         1.155490
 O         2.801061         2.595544        -0.204679
 C         3.007547         1.780185        -1.303604
 C         2.433942         0.407370        -1.016520
 H        -0.430416         0.130688         1.027532
 H        -0.152196         1.440191        -0.278138
 H        -0.623655        -0.321037        -0.691716
 H         3.963822        -1.205270        -0.112436
 H         2.202199         0.118050         2.132854
 H         2.430512         2.460334         1.832083
 H         3.889892         2.083093         1.749519
 H         2.630591         2.251608        -2.229710
 H         4.045601         1.631343        -1.493444
 H         2.394669        -0.328244        -1.857007
