19
Iteration:   735charge 0 multiplicity 1
 C        -0.161545         0.491143         0.159042
 C         1.402040         0.105954        -0.032764
 O         1.906778        -1.354136        -0.012479
 C         3.093662        -0.466374         0.076109
 C         2.518778         0.446250         1.039720
 C         2.961254         1.908777         1.125797
 O         2.704527         2.572093        -0.082728
 C         3.162261         1.856352        -1.224645
 C         2.558340         0.374619        -1.070095
 H        -0.581713         0.343663         1.193407
 H        -0.255186         1.529632        -0.229722
 H        -0.734220        -0.107398        -0.672804
 H         4.121992        -0.896081         0.228882
 H         2.390684         0.147824         2.047144
 H         2.608862         2.574417         1.921774
 H         4.061020         1.858395         1.430826
 H         2.769777         2.272486        -2.105463
 H         4.288116         1.934214        -1.270997
 H         2.375219        -0.199418        -1.995934
