19
Iteration:  2852charge 0 multiplicity 1
 C        -0.012573         0.411843         0.114542
 C         1.461171         0.089269        -0.048545
 O         1.867418        -1.306006         0.087851
 C         3.158198        -0.522333         0.130965
 C         2.451282         0.440013         1.075791
 C         2.910010         1.949075         1.148583
 O         2.814502         2.656377        -0.164881
 C         3.061453         1.828519        -1.316850
 C         2.481107         0.396850        -1.031414
 H        -0.414543        -0.099232         0.954380
 H        -0.234014         1.548149         0.196954
 H        -0.584347         0.157693        -0.745030
 H         4.106063        -1.017825         0.195722
 H         2.220613        -0.011491         2.086063
 H         2.336272         2.557506         1.887474
 H         3.996638         1.934570         1.412877
 H         2.429915         2.227754        -2.213580
 H         4.088441         1.617646        -1.467297
 H         2.266287        -0.087457        -2.047860
