19
Iteration:  3813charge 0 multiplicity 1
 C         0.052453         0.408477         0.007355
 C         1.476255         0.139495         0.084491
 O         1.842612        -1.249262         0.187339
 C         3.080805        -0.618213         0.078142
 C         2.485166         0.517905         1.087904
 C         2.990151         1.992404         1.094000
 O         2.721185         2.640086        -0.154596
 C         3.062997         1.720351        -1.252762
 C         2.491089         0.371790        -1.122898
 H        -0.584759        -0.133026         0.756394
 H        -0.117378         1.420532         0.130070
 H        -0.457796         0.133184        -0.973167
 H         4.012002        -1.106581         0.030019
 H         2.099015         0.088695         2.111040
 H         2.406555         2.557890         1.900753
 H         4.025047         1.996242         1.207105
 H         2.709135         2.238520        -2.140626
 H         4.238631         1.967202        -1.317276
 H         2.227428        -0.250248        -2.033124
