19
Iteration:  4080charge 0 multiplicity 1
 C        -0.080624         0.461280         0.011769
 C         1.381877         0.169420        -0.004662
 O         1.844454        -1.312119         0.121869
 C         3.129470        -0.473463         0.150781
 C         2.484912         0.521178         1.122481
 C         3.067961         1.969122         1.077114
 O         2.721624         2.587621        -0.095686
 C         3.003459         1.743904        -1.302510
 C         2.603856         0.278977        -1.104266
 H        -0.377402         0.089363         0.935637
 H        -0.331419         1.513452        -0.144721
 H        -0.638738        -0.029211        -0.680617
 H         4.168803        -0.958204         0.265172
 H         2.315591         0.207796         2.107146
 H         2.727123         2.560245         1.950488
 H         4.138850         1.994170         1.265989
 H         2.382932         2.221612        -2.100045
 H         4.175787         1.948198        -1.621988
 H         2.532186        -0.451380        -1.897587
