19
Iteration:  1959
 C        -0.020107         0.354210         0.017070
 C         1.432722         0.112864         0.031783
 O         1.825174        -1.241966         0.077897
 C         3.076222        -0.520296         0.005410
 C         2.463097         0.443286         1.111763
 C         2.982347         1.904274         1.192592
 O         2.680828         2.660098        -0.147907
 C         3.154435         1.776467        -1.226905
 C         2.520614         0.454075        -1.028320
 H        -0.163734         0.185525         1.077850
 H         0.001173         1.459635        -0.414929
 H        -0.536252        -0.183326        -0.762026
 H         4.213213        -1.129325         0.059496
 H         2.272728        -0.012378         2.071807
 H         2.591656         2.571301         1.866457
 H         4.150280         1.766361         1.150834
 H         2.784927         2.259805        -2.097921
 H         4.269726         1.732218        -1.177362
 H         2.244095        -0.083569        -1.987237
