19
Iteration:  1316
 C        -0.037438         0.461288        -0.116048
 C         1.448144         0.122341         0.054397
 O         1.907460        -1.306384         0.037502
 C         3.149827        -0.563436         0.020846
 C         2.496729         0.496990         1.098864
 C         3.066631         1.993619         1.188026
 O         2.781203         2.609864        -0.039604
 C         2.939645         1.737191        -1.193656
 C         2.389046         0.341739        -1.035410
 H        -0.748188        -0.025444         0.518049
 H        -0.137878         1.666330         0.108151
 H        -0.319814         0.310672        -1.127717
 H         4.093791        -0.951246        -0.058146
 H         2.427958         0.215006         2.144907
 H         2.702132         2.678390         1.918486
 H         4.113110         1.910654         1.480783
 H         2.459700         2.341590        -1.986423
 H         4.083776         1.584625        -1.299285
 H         2.121624        -0.117190        -1.960529
