19
Iteration:  3442
 C        -0.180101         0.550629        -0.020879
 C         1.417311         0.099326         0.063540
 O         1.948182        -1.392661         0.188207
 C         3.133444        -0.504368         0.140497
 C         2.532174         0.559605         1.078323
 C         3.014950         1.936350         1.117051
 O         2.709428         2.567385        -0.113664
 C         2.999182         1.792019        -1.316959
 C         2.596283         0.345371        -1.125515
 H        -0.854489         0.034646         0.672144
 H        -0.190246         1.660344         0.197617
 H        -0.606938         0.516494        -1.038946
 H         4.058745        -1.246637         0.400695
 H         2.425475         0.042691         2.019069
 H         2.581839         2.634675         1.851015
 H         4.253711         1.983490         1.221712
 H         2.397572         2.169293        -2.142462
 H         4.049696         1.792047        -1.602325
 H         2.450938        -0.184381        -2.092125
