19
Iteration:  1321charge 0 multiplicity 1
 C         0.008911         0.493906        -0.106896
 C         1.446826         0.112436         0.061280
 O         1.913499        -1.312183         0.040783
 C         3.132158        -0.517450         0.046416
 C         2.450087         0.508615         1.069271
 C         3.102984         1.960771         1.201841
 O         2.786635         2.582803        -0.046286
 C         2.883573         1.740890        -1.187701
 C         2.421183         0.374099        -1.044568
 H        -0.694740        -0.112932         0.613159
 H        -0.180446         1.500475         0.040380
 H        -0.329311         0.353097        -1.221596
 H         4.229713        -1.086094         0.030438
 H         2.290269         0.140496         2.109511
 H         2.545314         2.653636         1.916711
 H         4.249871         1.921552         1.432095
 H         2.619968         2.355115        -2.075357
 H         3.924533         1.671921        -1.412608
 H         2.040706        -0.257699        -1.910065
