19
Iteration:  2785charge 0 multiplicity 1
 C         0.052066         0.447049        -0.035494
 C         1.420797         0.122118         0.070285
 O         1.819210        -1.398228         0.151212
 C         3.173320        -0.510381         0.015032
 C         2.575079         0.508603         1.044969
 C         2.999323         2.007238         1.133455
 O         2.694137         2.617258        -0.122989
 C         3.033674         1.765131        -1.183688
 C         2.420091         0.408620        -1.056334
 H        -0.588428         0.146250         0.761839
 H        -0.115048         1.476326        -0.447106
 H        -0.329191        -0.216739        -0.768966
 H         4.017166        -1.093984        -0.024420
 H         2.341999        -0.004536         2.017697
 H         2.636404         2.591781         2.056912
 H         4.115823         2.107437         1.334430
 H         2.528439         2.367387        -2.084748
 H         4.148495         1.776327        -1.248807
 H         2.180816        -0.086785        -1.996808
