19
Iteration:  1173
 C        -0.011712         0.472636        -0.118617
 C         1.413579         0.112579         0.063226
 O         1.851641        -1.339267         0.118373
 C         3.103234        -0.491244         0.088970
 C         2.483576         0.428732         1.110338
 C         3.099037         1.840145         1.117621
 O         2.750742         2.600693        -0.042068
 C         2.984989         1.904039        -1.277422
 C         2.509521         0.403844        -1.031744
 H        -0.534393        -0.105484         0.545569
 H        -0.419702         1.576066        -0.038006
 H        -0.308347         0.051686        -1.024698
 H         4.052366        -0.955460         0.044435
 H         2.212274        -0.043669         2.080421
 H         2.812743         2.531829         1.841162
 H         4.193285         1.805150         1.278380
 H         2.317724         2.428343        -1.963145
 H         4.028110         2.061534        -1.532621
 H         2.266870        -0.034244        -1.967467
