19
Iteration:  4598
 C        -0.071707         0.414765         0.053378
 C         1.396097         0.075305         0.022145
 O         1.852361        -1.317836         0.141027
 C         3.127457        -0.394839         0.116634
 C         2.446573         0.519084         1.101454
 C         2.995653         1.919165         1.108464
 O         2.799940         2.623018        -0.158126
 C         3.056593         1.771339        -1.341598
 C         2.539327         0.326548        -1.031089
 H        -0.483184        -0.151633         0.897085
 H        -0.216787         1.433184         0.059342
 H        -0.495307         0.247255        -0.913041
 H         4.186974        -0.725470         0.040353
 H         2.186141         0.112353         2.097405
 H         2.660560         2.564574         1.901509
 H         4.003198         1.870429         1.184645
 H         2.440946         2.255038        -2.134637
 H         4.202579         1.724089        -1.351417
 H         2.442479        -0.239581        -1.952311
