19
Iteration:   502
 C        -0.106177         0.529554         0.098051
 C         1.382850         0.125737         0.003150
 O         1.915498        -1.438694         0.043310
 C         3.120393        -0.469455         0.119780
 C         2.405278         0.442627         1.116349
 C         3.022593         1.862614         1.115151
 O         2.783904         2.690239        -0.077446
 C         3.000072         1.854910        -1.314476
 C         2.649767         0.376442        -1.098519
 H        -0.726131        -0.038509         0.807156
 H        -0.294219         1.669378         0.150524
 H        -0.606876         0.281923        -0.930113
 H         4.019795        -1.088376         0.346860
 H         2.154511        -0.078676         2.072460
 H         2.810234         2.350928         2.109974
 H         4.176468         1.822075         1.255851
 H         2.378382         2.282194        -2.097426
 H         4.018139         1.939851        -1.719205
 H         2.430991        -0.284231        -2.017052
