19
Iteration:  3135
 C        -0.017314         0.358400         0.005339
 C         1.385944         0.133084         0.135102
 O         1.889909        -1.239185         0.132005
 C         3.137549        -0.475370         0.078853
 C         2.406776         0.440883         1.093396
 C         2.982367         1.918832         1.097290
 O         2.842895         2.614237        -0.148398
 C         3.023857         1.816673        -1.349127
 C         2.507225         0.384428        -1.018857
 H        -0.483202         0.177411         1.001798
 H        -0.294022         1.527480        -0.357088
 H        -0.460011        -0.356825        -0.704110
 H         4.065601        -1.022553         0.099217
 H         2.194289         0.034517         2.115567
 H         2.494891         2.653046         1.921810
 H         4.128456         1.759539         1.327647
 H         2.302345         2.266123        -2.067293
 H         4.102629         1.793952        -1.728783
 H         2.356493        -0.202835        -1.941255
