19
Iteration:  3615
 C        -0.115975         0.488527        -0.086769
 C         1.314348         0.061218         0.072918
 O         1.921642        -1.308055         0.192252
 C         3.143821        -0.501780         0.087500
 C         2.593889         0.465273         1.116651
 C         3.065062         2.004897         1.100097
 O         2.713693         2.591166        -0.179051
 C         3.020445         1.802938        -1.269529
 C         2.504095         0.326310        -1.044470
 H        -0.758988        -0.015950         0.641720
 H        -0.254385         1.627217         0.263821
 H        -0.595755         0.303134        -1.052562
 H         3.942096        -1.261318         0.139914
 H         2.642395         0.000094         2.175373
 H         2.615104         2.665509         1.869605
 H         4.144781         2.120514         1.400710
 H         2.597143         2.323257        -2.096684
 H         4.121005         1.766054        -1.473110
 H         2.318230        -0.278771        -1.889380
