19
Iteration:  4353
 C        -0.065803         0.356826         0.013050
 C         1.403610         0.178129         0.026648
 O         1.911172        -1.298178         0.160335
 C         3.076434        -0.406982         0.002048
 C         2.502311         0.497224         1.101622
 C         2.995791         1.955795         1.165431
 O         2.864529         2.621007        -0.164638
 C         3.060364         1.713505        -1.224283
 C         2.384558         0.349031        -1.091003
 H        -0.558687         0.006373         0.935612
 H        -0.382381         1.510082         0.055927
 H        -0.555311        -0.232972        -0.709054
 H         4.058758        -1.005037         0.028355
 H         2.281852         0.189895         2.172144
 H         2.193663         2.483242         1.670005
 H         4.047045         2.096453         1.394352
 H         2.942416         2.185930        -2.208387
 H         4.137128         1.635114        -1.252614
 H         2.385954        -0.203869        -2.033061
