19
Iteration:  4741
 C        -0.131176         0.372413         0.110717
 C         1.402106         0.172966         0.039050
 O         1.866995        -1.273961         0.076392
 C         3.088165        -0.537034         0.063948
 C         2.505034         0.546434         1.074088
 C         2.940917         2.048622         1.137351
 O         2.837284         2.607488        -0.208837
 C         3.107121         1.735573        -1.205677
 C         2.559827         0.276137        -1.077288
 H        -0.246889        -0.254062         1.035487
 H        -0.281503         1.486491         0.296898
 H        -0.619374         0.054940        -0.876628
 H         3.978574        -1.133671         0.201670
 H         2.162709         0.178873         2.100297
 H         2.169749         2.614493         1.647797
 H         3.996935         2.138249         1.621990
 H         2.552672         2.195877        -2.133839
 H         4.118906         1.773968        -1.512611
 H         2.485236        -0.221117        -2.065323
