19
Iteration:  1714
 C        -0.021972         0.499278        -0.110721
 C         1.393200         0.066522         0.033509
 O         1.872225        -1.287923         0.176941
 C         3.164666        -0.477867         0.025506
 C         2.534930         0.369258         1.085978
 C         3.040055         1.874031         1.183523
 O         2.698349         2.632896        -0.104839
 C         3.000582         1.841052        -1.246121
 C         2.502567         0.409739        -1.043127
 H        -0.684842         0.083302         0.808371
 H        -0.104195         1.548206         0.168732
 H        -0.403354         0.169779        -1.174454
 H         4.013652        -1.155699         0.117054
 H         2.335625        -0.172265         2.054723
 H         2.586260         2.476320         1.984901
 H         4.075263         1.963388         1.358184
 H         2.525178         2.414245        -2.110872
 H         4.125003         1.738953        -1.563398
 H         2.278285        -0.019485        -2.028585
