19
Iteration:  4023charge 0 multiplicity 1
 C        -0.020763         0.510909         0.023283
 C         1.382744         0.070068         0.063165
 O         1.884143        -1.316949         0.186417
 C         3.120170        -0.567662         0.004934
 C         2.524155         0.480740         1.037503
 C         2.967855         2.053447         1.099866
 O         2.709347         2.654509        -0.165236
 C         3.069069         1.716468        -1.216915
 C         2.515582         0.338100        -1.052498
 H        -0.442364         0.222492         0.984561
 H         0.084482         1.515965         0.135901
 H        -0.523247         0.094924        -0.830036
 H         4.070631        -1.135276         0.028099
 H         2.439430         0.142018         2.129812
 H         2.126668         2.495263         1.718557
 H         3.950230         2.065087         1.387497
 H         2.769421         2.182712        -2.172831
 H         4.256815         1.515457        -1.298223
 H         2.309022        -0.173220        -2.027314
