19
Iteration:  1729charge 0 multiplicity 1
 C         0.026607         0.517799        -0.025569
 C         1.449134         0.154475         0.059727
 O         1.908249        -1.393737         0.090103
 C         3.091449        -0.521841         0.030382
 C         2.540836         0.511799         1.096442
 C         2.941283         1.896697         1.112523
 O         2.745931         2.595534        -0.040911
 C         3.012252         1.800562        -1.217503
 C         2.417082         0.370561        -1.098304
 H        -0.605127         0.044371         0.685853
 H         0.083385         1.730902        -0.236282
 H        -0.332716         0.182385        -0.972211
 H         4.196140        -0.926628        -0.068000
 H         2.464869         0.105176         2.081527
 H         2.393731         2.475466         1.872111
 H         3.992104         2.044046         1.525152
 H         2.542349         2.318958        -2.015734
 H         4.070909         1.781581        -1.198470
 H         2.227402        -0.200885        -2.043011
