19
Iteration:  1220
 C        -0.005321         0.430814         0.003788
 C         1.437133         0.181351         0.060552
 O         1.849099        -1.357297         0.115554
 C         3.094547        -0.513100        -0.041712
 C         2.453419         0.428940         1.084121
 C         2.958825         1.852592         1.193758
 O         2.797233         2.645058        -0.076711
 C         3.067035         1.823654        -1.256592
 C         2.484798         0.436007        -1.084983
 H        -0.607844         0.275799         0.923959
 H        -0.063945         1.405833        -0.296075
 H        -0.474469        -0.118721        -0.809007
 H         4.179390        -1.009240        -0.066243
 H         2.377664         0.019908         2.083015
 H         2.454708         2.432956         1.914140
 H         3.953730         2.080997         1.427439
 H         2.555990         2.384164        -2.033952
 H         4.206043         1.812434        -1.305357
 H         2.435809        -0.023273        -2.057394
