19
Iteration:  4480
 C         0.103240         0.428810        -0.083821
 C         1.480489         0.107988         0.048663
 O         1.752665        -1.310926         0.178351
 C         3.121653        -0.522209         0.116276
 C         2.513943         0.489259         1.115423
 C         3.097546         1.953804         1.083439
 O         2.682073         2.648973        -0.114242
 C         2.964532         1.783464        -1.281228
 C         2.527234         0.333563        -1.073838
 H        -0.352791         0.156923         0.948456
 H        -0.172100         1.412429        -0.393428
 H        -0.494092        -0.087570        -0.950363
 H         4.069086        -0.981164         0.234875
 H         2.299190         0.168434         2.168334
 H         2.658840         2.544704         1.990354
 H         4.121206         2.059557         1.216793
 H         2.377670         2.299190        -2.071896
 H         4.012821         1.840731        -1.426531
 H         2.064240        -0.169168        -1.931770
