19
Iteration:  2568charge 0 multiplicity 1
 C         0.036641         0.419890        -0.154121
 C         1.434800         0.096663         0.079184
 O         1.817177        -1.327152         0.139778
 C         3.145620        -0.570662         0.068997
 C         2.553580         0.417239         1.137050
 C         3.080698         1.956008         1.167885
 O         2.703351         2.672582        -0.086873
 C         2.969567         1.847193        -1.220620
 C         2.409989         0.396576        -1.077384
 H        -0.570057         0.196672         0.771616
 H         0.136622         1.566953        -0.215960
 H        -0.261563        -0.056174        -1.116413
 H         4.321697        -1.018580        -0.090892
 H         2.240307         0.003991         2.100631
 H         2.640919         2.536720         1.933276
 H         4.150180         2.076943         1.083184
 H         2.388748         2.265379        -1.967763
 H         4.055684         1.813002        -1.429791
 H         2.237764        -0.117742        -2.011793
