19
Iteration:   159
 C        -0.034581         0.473190         0.013829
 C         1.397383         0.136199        -0.015117
 O         1.913080        -1.257883         0.096103
 C         3.124609        -0.464041         0.063767
 C         2.453481         0.442476         1.100996
 C         3.012890         1.823186         1.089073
 O         2.751159         2.592643        -0.089085
 C         3.037298         1.762582        -1.189470
 C         2.489702         0.452863        -1.059417
 H        -0.671571         0.039752         0.832797
 H        -0.176105         1.576394         0.137606
 H        -0.427954         0.115808        -0.915649
 H         4.089259        -1.007463         0.050387
 H         2.184745         0.039132         2.125220
 H         2.706509         2.389830         1.959022
 H         4.118327         1.649027         1.137415
 H         2.555450         2.210620        -2.057920
 H         4.073883         1.761182        -1.487652
 H         2.395335        -0.094988        -2.028551
