19
Iteration:  2965
 C        -0.051114         0.370772         0.025225
 C         1.436513         0.128282         0.078427
 O         1.839703        -1.249472         0.114051
 C         3.126265        -0.485388         0.039706
 C         2.429194         0.530319         1.119595
 C         3.062481         1.922688         1.117172
 O         2.737444         2.585546        -0.114917
 C         3.041681         1.791913        -1.255553
 C         2.553584         0.356237        -1.106592
 H        -0.475470         0.259656         1.075288
 H        -0.233747         1.364550        -0.341780
 H        -0.448212        -0.428152        -0.691906
 H         4.161746        -0.996769        -0.019718
 H         2.096446         0.085606         2.052147
 H         2.637519         2.494383         1.850900
 H         4.122577         1.936093         1.120964
 H         2.643624         2.310364        -2.135088
 H         4.117363         1.978358        -1.212982
 H         2.204490        -0.207045        -1.990648
