19
Iteration:  2583
 C         0.027987         0.514465        -0.110900
 C         1.439666         0.073722         0.056407
 O         1.860430        -1.350609         0.212749
 C         3.110928        -0.461713         0.007741
 C         2.546114         0.440994         1.098816
 C         3.008534         1.836433         1.104622
 O         2.694949         2.638229        -0.069235
 C         2.936358         1.848059        -1.253178
 C         2.568138         0.392068        -1.025188
 H        -0.627198         0.354440         0.699731
 H        -0.077714         1.599953        -0.294606
 H        -0.346251        -0.029228        -0.973472
 H         3.972785        -1.082098         0.105080
 H         2.548627        -0.092084         2.043418
 H         2.442659         2.440954         1.884874
 H         4.086773         1.785267         1.439359
 H         2.452218         2.382849        -2.134531
 H         3.935991         1.915796        -1.656636
 H         2.317809        -0.057717        -2.033607
