19
Iteration:  4700
 C        -0.031485         0.478630         0.042769
 C         1.412173         0.028835         0.020861
 O         1.887786        -1.326933         0.153615
 C         3.148906        -0.490669         0.082092
 C         2.419543         0.530475         1.117113
 C         3.005095         1.968635         1.050156
 O         2.727054         2.589998        -0.132397
 C         3.085661         1.764315        -1.229022
 C         2.512035         0.354007        -1.099108
 H        -0.624161         0.633822         0.931502
 H         0.049757         1.477570        -0.151145
 H        -0.632929        -0.035547        -0.745311
 H         4.072988        -1.035861         0.057541
 H         2.217865         0.099026         2.125478
 H         2.399263         2.610064         1.839346
 H         4.117510         2.060053         1.279125
 H         2.689711         2.318198        -2.107331
 H         4.217652         1.879018        -1.499044
 H         2.276565        -0.281655        -1.978865
