19
Iteration:   807
 C        -0.034939         0.417169        -0.079745
 C         1.420954         0.115421         0.033927
 O         1.891646        -1.346808         0.027869
 C         3.106681        -0.463204         0.135206
 C         2.446404         0.511139         1.105033
 C         3.079031         1.867494         1.142711
 O         2.848043         2.605521        -0.075845
 C         2.908841         1.832372        -1.220123
 C         2.494858         0.382315        -1.048460
 H        -0.585418        -0.028067         0.804431
 H        -0.156302         1.453126         0.015822
 H        -0.513353         0.205952        -1.007025
 H         4.026450        -0.942245         0.223579
 H         2.292708         0.185745         2.140398
 H         2.704182         2.511062         1.937345
 H         4.132511         1.852793         1.374286
 H         2.172098         2.442810        -1.913838
 H         3.903850         1.864533        -1.724968
 H         2.375964        -0.091282        -1.997607
