19
Iteration:  4247charge 0 multiplicity 1
 C         0.013008         0.508293        -0.038742
 C         1.462974         0.123994         0.084185
 O         1.834259        -1.327661         0.148011
 C         3.124983        -0.555238         0.033281
 C         2.545045         0.494706         1.102313
 C         2.980151         2.037258         1.084812
 O         2.703402         2.615091        -0.139146
 C         3.002511         1.770072        -1.209322
 C         2.509223         0.263593        -1.045606
 H        -0.603233         0.180006         0.778206
 H        -0.034451         1.600959        -0.195606
 H        -0.200794         0.141446        -1.012806
 H         4.097573        -1.118212        -0.119668
 H         2.407367        -0.012913         2.029050
 H         2.572729         2.547378         2.006430
 H         4.053935         2.325625         1.439640
 H         2.497049         2.123284        -2.143941
 H         4.035622         1.726013        -1.200621
 H         2.159100        -0.276336        -1.943812
