19
Iteration:  1575
 C        -0.054675         0.467995         0.136547
 C         1.367856         0.128517        -0.001039
 O         1.877149        -1.373567        -0.009579
 C         3.137085        -0.515200         0.051479
 C         2.425318         0.442354         1.069232
 C         2.934578         1.915568         1.143199
 O         2.790574         2.665520        -0.110366
 C         3.053745         1.820622        -1.188312
 C         2.613447         0.368292        -1.092843
 H        -0.396244         0.371286         1.124967
 H        -0.188621         1.563710        -0.134635
 H        -0.646716        -0.090724        -0.538027
 H         4.214968        -0.868029         0.242485
 H         2.206818        -0.029797         2.005920
 H         2.285769         2.447290         1.907997
 H         3.997750         1.906703         1.511703
 H         2.678459         2.295720        -2.088931
 H         4.141333         1.741956        -1.502770
 H         2.539911         0.000465        -2.126296
