19
Iteration:  3987charge 0 multiplicity 1
 C         0.014218         0.436757         0.063768
 C         1.434036         0.105441         0.007585
 O         1.808729        -1.283293         0.115585
 C         3.131384        -0.454665         0.145844
 C         2.400762         0.477093         1.114507
 C         3.007042         1.988733         1.093386
 O         2.795231         2.564040        -0.175740
 C         2.985889         1.743351        -1.337308
 C         2.613327         0.349509        -1.008075
 H        -0.355365        -0.049629         1.017032
 H        -0.233692         1.429667        -0.044392
 H        -0.603538         0.009873        -0.797548
 H         4.071943        -0.921785         0.048711
 H         2.185888        -0.035140         2.162457
 H         2.641639         2.809331         1.783742
 H         3.927199         2.021447         1.573063
 H         2.365534         2.288967        -2.064109
 H         4.166144         1.784279        -1.732499
 H         2.377340        -0.035873        -2.033661
