19
Iteration:  2869charge 0 multiplicity 1
 C        -0.101764         0.427402         0.010230
 C         1.395856         0.109130         0.111910
 O         1.892849        -1.381431         0.141648
 C         3.063809        -0.449671         0.038683
 C         2.538599         0.519584         1.073242
 C         2.960754         1.931722         1.075075
 O         2.857295         2.648728        -0.109291
 C         2.989887         1.804858        -1.231767
 C         2.565460         0.341473        -1.120519
 H        -0.565568        -0.099329         0.910894
 H        -0.160909         1.438468         0.243390
 H        -0.508671         0.128806        -1.003738
 H         4.041163        -1.011080         0.010903
 H         2.416747         0.131137         2.071227
 H         2.114457         2.413100         1.593602
 H         3.929164         2.038223         1.616130
 H         2.441838         2.380775        -1.920031
 H         4.082299         1.870245        -1.615149
 H         2.506237        -0.231853        -1.999013
