19
Iteration:  1876
 C        -0.039967         0.470675        -0.074001
 C         1.395491         0.146559        -0.033609
 O         1.914867        -1.309289         0.064438
 C         3.111910        -0.511587         0.186829
 C         2.452608         0.429240         1.166927
 C         3.042645         1.874186         1.118022
 O         2.816613         2.619095        -0.078105
 C         2.892796         1.841901        -1.282817
 C         2.603246         0.352763        -1.076090
 H        -0.557603        -0.078254         0.782867
 H        -0.175564         1.588539         0.184476
 H        -0.662577         0.200993        -0.987323
 H         3.986157        -0.993386         0.234726
 H         2.180650         0.173931         2.250985
 H         2.704163         2.615071         1.967397
 H         4.062523         1.745459         1.367981
 H         2.045182         2.303886        -1.957890
 H         3.902932         1.994475        -1.783852
 H         2.557447        -0.204617        -1.997409
