19
Iteration:  4920charge 0 multiplicity 1
 C        -0.016014         0.468656         0.124146
 C         1.408422         0.118944         0.050298
 O         1.859892        -1.333965         0.070273
 C         3.147627        -0.484043         0.080266
 C         2.448771         0.530916         1.102072
 C         2.885561         2.042770         1.115492
 O         2.777680         2.622703        -0.189130
 C         3.108571         1.679963        -1.260277
 C         2.506212         0.313426        -1.105570
 H        -0.434113        -0.059387         1.004581
 H        -0.204858         1.613198         0.182993
 H        -0.489899        -0.052371        -0.752875
 H         4.088701        -0.990327         0.332332
 H         2.230330         0.055194         2.074253
 H         2.562622         2.717579         1.961162
 H         4.055617         2.092717         1.284025
 H         2.644884         2.135970        -2.160179
 H         4.170858         1.596835        -1.325163
 H         2.547302        -0.226027        -2.074964
