19
Iteration:  2227
 C        -0.016380         0.408612        -0.063508
 C         1.424210         0.132626         0.010175
 O         1.832618        -1.291347         0.095019
 C         3.095790        -0.439130         0.072697
 C         2.482482         0.524611         1.069809
 C         3.060618         1.939535         1.146206
 O         2.772739         2.576257        -0.036638
 C         2.977578         1.774294        -1.219974
 C         2.490136         0.396059        -1.079744
 H        -0.552825        -0.299399         0.730313
 H        -0.375077         1.436712        -0.139304
 H        -0.456741        -0.103414        -1.029978
 H         4.144909        -1.027057         0.078418
 H         2.482015         0.105605         2.114215
 H         2.806938         2.538903         2.002398
 H         4.089657         1.745925         1.395110
 H         2.652346         2.290297        -2.137328
 H         4.056050         1.696100        -1.337761
 H         2.534272        -0.225679        -1.928411
