19
Iteration:  2777
 C        -0.019367         0.465950        -0.114957
 C         1.433205         0.112006         0.072398
 O         1.842611        -1.371460         0.149254
 C         3.210388        -0.478192         0.004419
 C         2.581814         0.452182         1.091441
 C         3.053122         1.989441         1.160611
 O         2.707800         2.621474        -0.109929
 C         2.973473         1.803890        -1.218669
 C         2.406904         0.364796        -1.015166
 H        -0.448080         0.285109         0.887723
 H        -0.302755         1.624051        -0.337369
 H        -0.446304        -0.193126        -0.909275
 H         4.105854        -1.144116         0.152869
 H         2.457490         0.148731         2.141166
 H         2.369076         2.411528         1.841923
 H         4.168556         2.134087         1.287120
 H         2.556851         2.188010        -2.159027
 H         4.125765         1.663304        -1.349350
 H         2.176498        -0.089501        -2.034893
