19
Iteration:  4031
 C         0.010233         0.512985         0.039773
 C         1.445377         0.078465         0.074881
 O         1.831532        -1.385963         0.196092
 C         3.160441        -0.558132        -0.014791
 C         2.548071         0.531570         1.054455
 C         2.922898         2.021274         1.095806
 O         2.720311         2.650561        -0.201020
 C         3.077654         1.744534        -1.185912
 C         2.458183         0.344351        -1.065699
 H        -0.623209         0.104468         0.892862
 H        -0.060734         1.585892        -0.074113
 H        -0.621599         0.162078        -0.868201
 H         4.034880        -1.134130         0.086366
 H         2.386089        -0.019593         2.072173
 H         2.399719         2.597698         1.904927
 H         4.003047         2.251728         1.383965
 H         2.800338         2.159519        -2.161770
 H         4.252198         1.669662        -1.173342
 H         2.368277        -0.163370        -2.059221
