19
Iteration:  2379charge 0 multiplicity 1
 C        -0.139287         0.408424        -0.153051
 C         1.377081         0.138856        -0.010421
 O         1.826219        -1.311576         0.125717
 C         3.120331        -0.447440         0.070865
 C         2.602031         0.457246         1.188171
 C         3.146765         1.965224         1.101026
 O         2.671999         2.525374        -0.034813
 C         2.983913         1.843641        -1.213824
 C         2.592599         0.375036        -1.073226
 H        -0.609993         0.096544         0.799141
 H        -0.318782         1.472235        -0.064258
 H        -0.529452         0.069923        -1.141273
 H         4.176788        -1.031631         0.159952
 H         2.393351        -0.021471         2.184546
 H         2.645086         2.486256         1.850847
 H         4.298593         1.973880         1.018952
 H         2.461753         2.391096        -1.908462
 H         4.196152         1.768632        -1.305498
 H         2.354877         0.029118        -2.051266
