19
Iteration:  4416charge 0 multiplicity 1
 C         0.008347         0.440909         0.032247
 C         1.453370         0.143237         0.068230
 O         1.872422        -1.292528         0.099148
 C         3.067859        -0.535776         0.101424
 C         2.453065         0.555802         1.094092
 C         2.991949         1.958249         1.093760
 O         2.743960         2.613542        -0.164042
 C         3.024787         1.776742        -1.268728
 C         2.592324         0.310366        -1.074813
 H        -0.314317         0.150191         1.061585
 H        -0.032384         1.475947         0.201753
 H        -0.542616        -0.009039        -0.825896
 H         3.891846        -1.184034         0.217042
 H         2.016569         0.143188         2.057634
 H         2.392214         2.467231         1.820497
 H         4.150962         1.937002         1.388534
 H         2.341445         2.103718        -2.027299
 H         4.167428         1.754172        -1.538662
 H         2.214671        -0.215856        -1.968046
