19
Iteration:  3184charge 0 multiplicity 1
 C         0.002820         0.470912         0.025823
 C         1.419049         0.176524         0.057969
 O         1.868110        -1.360186         0.188272
 C         3.174962        -0.502454         0.040983
 C         2.442091         0.511025         1.116254
 C         2.941882         1.907930         1.105881
 O         2.764621         2.631869        -0.152631
 C         3.014316         1.787638        -1.261298
 C         2.523035         0.337931        -1.112393
 H        -0.503162         0.309860         1.007649
 H        -0.096083         1.448690        -0.317869
 H        -0.511234        -0.214459        -0.706331
 H         4.191972        -1.048257        -0.093530
 H         2.346300         0.159270         2.149210
 H         2.527656         2.549481         1.924475
 H         4.072538         1.918997         1.467110
 H         2.490070         2.194191        -2.194844
 H         4.112316         1.711612        -1.444461
 H         2.272295        -0.100170        -2.130310
