19
Iteration:  3607charge 0 multiplicity 1
 C        -0.077481         0.518742        -0.072461
 C         1.364116         0.035476         0.066706
 O         1.923734        -1.324898         0.192703
 C         3.072663        -0.513820         0.120330
 C         2.591954         0.552032         1.095802
 C         3.056335         1.916684         1.093574
 O         2.749783         2.628510        -0.160284
 C         2.959564         1.825852        -1.292885
 C         2.483844         0.297122        -1.039731
 H        -0.705087        -0.087514         0.693794
 H        -0.280317         1.588844         0.086111
 H        -0.591419         0.217981        -1.090111
 H         4.179298        -0.993726         0.220703
 H         2.565990         0.108097         2.076378
 H         2.555581         2.409224         1.917560
 H         4.162215         2.062364         1.382919
 H         2.633848         2.348950        -2.219014
 H         4.131632         1.778906        -1.382515
 H         2.403804        -0.326529        -1.951137
