19
Iteration:  3733charge 0 multiplicity 1
 C        -0.130263         0.364895        -0.080236
 C         1.376329         0.092884         0.053004
 O         1.872366        -1.234179         0.196934
 C         3.188944        -0.552709         0.087898
 C         2.575318         0.563954         1.052641
 C         3.014532         1.930883         1.148964
 O         2.858564         2.642399        -0.170539
 C         2.945977         1.799433        -1.235096
 C         2.484485         0.336473        -1.053207
 H        -0.677036         0.265495         0.809470
 H        -0.267258         1.476190        -0.386766
 H        -0.605669        -0.217350        -0.772823
 H         4.019811        -1.299897         0.033932
 H         2.390286         0.146738         2.075071
 H         2.463506         2.568601         2.023393
 H         4.043399         1.898447         1.549161
 H         2.316889         2.218104        -2.043893
 H         4.092072         1.836203        -1.587301
 H         2.316647        -0.299220        -1.901299
