19
Iteration:  2955
 C        -0.014635         0.317172         0.036210
 C         1.442738         0.160424         0.014467
 O         1.812969        -1.344309         0.095330
 C         3.114152        -0.458320         0.122260
 C         2.451604         0.566824         1.052003
 C         3.068307         1.952120         1.080991
 O         2.737340         2.605021        -0.081830
 C         3.059691         1.802331        -1.202706
 C         2.511621         0.388140        -1.114626
 H        -0.578915         0.254135         1.060007
 H        -0.219722         1.333069        -0.255831
 H        -0.682443        -0.323866        -0.689852
 H         4.093107        -1.038176         0.349468
 H         2.234564         0.235151         2.047084
 H         2.851393         2.545508         1.906019
 H         4.163106         1.727739         1.180284
 H         2.504305         2.209061        -1.991466
 H         4.046731         1.701262        -1.655395
 H         2.424645        -0.007473        -2.121027
