19
Iteration:  3052charge 0 multiplicity 1
 C        -0.096330         0.483015         0.062052
 C         1.400653         0.133087         0.038767
 O         1.911065        -1.269517         0.050160
 C         3.100668        -0.479956         0.088208
 C         2.526902         0.500488         1.160430
 C         2.958079         1.971117         1.155186
 O         2.703577         2.577954        -0.153876
 C         3.005050         1.712333        -1.301776
 C         2.668490         0.316348        -1.062209
 H        -0.643044        -0.051407         0.856095
 H        -0.145725         1.478177         0.245170
 H        -0.619635         0.301405        -0.889083
 H         4.121913        -0.974794         0.205262
 H         2.234440         0.151034         2.132473
 H         2.690866         2.574923         2.000563
 H         4.085699         1.771080         1.224923
 H         2.405474         2.058684        -2.187911
 H         4.042518         1.855949        -1.645842
 H         2.476817        -0.186825        -2.063710
