19
Iteration:  2381
 C        -0.129789         0.406606        -0.141711
 C         1.383939         0.143995        -0.004340
 O         1.825143        -1.321843         0.109095
 C         3.120257        -0.447360         0.071806
 C         2.579343         0.484790         1.166694
 C         3.161596         1.960695         1.114123
 O         2.670711         2.521180        -0.022585
 C         2.984585         1.839989        -1.222107
 C         2.585692         0.377482        -1.070670
 H        -0.601246         0.035159         0.860458
 H        -0.325418         1.464209        -0.144008
 H        -0.516942         0.082763        -1.138170
 H         4.182378        -1.007524         0.190902
 H         2.351715         0.071425         2.188348
 H         2.649108         2.485842         1.833712
 H         4.353875         1.959700         1.005785
 H         2.428318         2.354117        -1.949142
 H         4.197730         1.771798        -1.252891
 H         2.360305        -0.053786        -2.033256
