19
Iteration:  3252charge 0 multiplicity 1
 C        -0.097022         0.444330        -0.010792
 C         1.454133         0.068733         0.059760
 O         1.859575        -1.249722         0.191712
 C         3.121491        -0.577191         0.159018
 C         2.443752         0.475968         1.145806
 C         3.061178         1.865145         1.013038
 O         2.698062         2.615549        -0.177440
 C         3.035551         1.879810        -1.316436
 C         2.608466         0.404674        -1.106698
 H        -0.495468        -0.217869         0.800365
 H        -0.192196         1.409397         0.366667
 H        -0.793485         0.386476        -0.873887
 H         4.184091        -1.139641         0.273408
 H         2.112009         0.155992         2.176680
 H         2.539165         2.427276         1.832895
 H         4.207829         1.757882         1.393666
 H         2.518048         2.430607        -2.123349
 H         4.162299         1.951647        -1.471611
 H         2.548836        -0.201243        -2.022739
