19
Iteration:  1728charge 0 multiplicity 1
 C         0.032450         0.522169        -0.031665
 C         1.452316         0.142960         0.064632
 O         1.906317        -1.392025         0.097749
 C         3.089448        -0.520372         0.031867
 C         2.540701         0.508234         1.094759
 C         2.951374         1.894926         1.118802
 O         2.742406         2.596297        -0.045366
 C         3.006358         1.806306        -1.219775
 C         2.416416         0.381904        -1.099877
 H        -0.627824         0.015814         0.695865
 H         0.050251         1.734365        -0.234150
 H        -0.352783         0.183823        -0.997568
 H         4.199059        -0.929755        -0.051806
 H         2.448387         0.102238         2.083864
 H         2.383756         2.425398         1.861289
 H         3.987977         2.020875         1.505581
 H         2.561755         2.331418        -2.030816
 H         4.093059         1.757795        -1.218953
 H         2.251867        -0.198265        -2.045468
