19
Iteration:   676
 C        -0.096216         0.440562        -0.054838
 C         1.377043         0.133183         0.012249
 O         1.906070        -1.258431         0.126101
 C         3.119072        -0.514053        -0.040606
 C         2.596098         0.468203         1.162212
 C         3.003113         1.884538         1.221896
 O         2.747454         2.606150        -0.105531
 C         3.031862         1.778802        -1.222196
 C         2.518397         0.392165        -1.064674
 H        -0.871909         0.005333         0.642453
 H        -0.234863         1.557199         0.067467
 H        -0.551777         0.220724        -1.067965
 H         4.040484        -1.063476        -0.094304
 H         2.499602        -0.186720         2.061144
 H         2.421688         2.615167         1.790261
 H         4.119962         1.909116         1.457302
 H         2.455541         2.358602        -2.085533
 H         4.097058         1.787964        -1.417895
 H         2.224898        -0.217296        -1.939074
