19
Iteration:   654charge 0 multiplicity 1
 C         0.008273         0.483111        -0.119074
 C         1.399422         0.073811         0.103299
 O         1.894929        -1.399011         0.132178
 C         3.104188        -0.447880         0.029961
 C         2.530227         0.499852         1.063216
 C         3.063036         1.874395         1.133951
 O         2.811425         2.627930        -0.051060
 C         2.918918         1.813252        -1.221570
 C         2.442117         0.400000        -1.065392
 H        -0.739707        -0.070437         0.500205
 H        -0.273055         1.551409         0.096126
 H        -0.309467         0.257326        -1.152357
 H         4.119243        -0.798437         0.156140
 H         2.280008         0.158010         2.091680
 H         2.478722         2.480568         1.848096
 H         4.158200         1.853088         1.422234
 H         2.539615         2.430387        -2.124774
 H         3.999201         1.785923        -1.342316
 H         2.100594        -0.123660        -1.973983
