19
Iteration:  3354
 C        -0.020713         0.383563         0.073777
 C         1.446777         0.118068         0.029780
 O         1.879603        -1.315774         0.060507
 C         3.091928        -0.373093         0.103127
 C         2.354849         0.512372         1.116057
 C         3.038257         1.967529         1.096355
 O         2.796454         2.579436        -0.139669
 C         3.049378         1.756510        -1.285934
 C         2.518064         0.343986        -1.080018
 H        -0.385919         0.454426         1.077324
 H        -0.241050         1.430443        -0.385278
 H        -0.558224        -0.402382        -0.366702
 H         4.115382        -0.980893         0.112655
 H         2.131909         0.106940         2.107898
 H         2.562663         2.584339         1.819374
 H         4.030097         1.862877         1.487210
 H         2.642515         2.376347        -2.054676
 H         4.196621         1.728478        -1.432804
 H         2.193001        -0.335572        -1.833996
