19
Iteration:  3207charge 0 multiplicity 1
 C        -0.095670         0.466281         0.000440
 C         1.394940         0.115981         0.055300
 O         1.890515        -1.274744         0.142067
 C         3.154662        -0.491495         0.078602
 C         2.601035         0.522013         1.122131
 C         3.003316         1.942351         1.108188
 O         2.673501         2.544145        -0.156228
 C         3.090479         1.757521        -1.298159
 C         2.469061         0.387793        -1.018442
 H        -0.880670         0.190501         0.740826
 H        -0.055694         1.467438        -0.176753
 H        -0.526930         0.116672        -0.982051
 H         4.136192        -1.167097        -0.029587
 H         2.444644         0.051256         2.117901
 H         2.512691         2.424758         1.993932
 H         4.135171         2.105839         1.442125
 H         2.629187         2.194858        -2.230006
 H         4.202214         1.660599        -1.379096
 H         2.208969        -0.209756        -1.937483
