19
Iteration:  4066
 C        -0.120107         0.452156         0.037929
 C         1.460363         0.130766        -0.010907
 O         1.859072        -1.222533         0.137249
 C         3.140543        -0.517165         0.086681
 C         2.547149         0.542493         1.114828
 C         3.028703         1.940084         1.119780
 O         2.673230         2.530770        -0.204564
 C         3.039080         1.725906        -1.221332
 C         2.575463         0.352319        -1.018178
 H        -0.659994         0.299744         1.008629
 H        -0.235310         1.459571        -0.044824
 H        -0.537159        -0.025641        -0.893886
 H         3.972417        -1.182978         0.091121
 H         2.224425        -0.023998         2.100806
 H         2.531323         2.689891         1.831142
 H         4.215156         2.020569         1.243243
 H         2.497923         2.114329        -2.101200
 H         4.224445         1.750888        -1.477964
 H         2.439955        -0.003326        -2.077342
