19
Iteration:  4179
 C        -0.121335         0.354996         0.072084
 C         1.374470         0.091712        -0.027252
 O         1.871937        -1.303026         0.097965
 C         3.098792        -0.499499         0.162608
 C         2.515918         0.481617         1.117564
 C         3.019950         1.971941         1.026592
 O         2.814352         2.661307        -0.158475
 C         3.082306         1.781454        -1.274552
 C         2.503576         0.354014        -1.059334
 H        -0.482767         0.181621         1.023372
 H        -0.237683         1.497064         0.084061
 H        -0.700706         0.033702        -0.705669
 H         4.055054        -1.170327         0.316289
 H         2.075971         0.145112         2.028535
 H         2.515450         2.704704         1.765056
 H         4.076134         2.157128         1.488751
 H         2.678544         2.477999        -2.051347
 H         4.139410         1.587688        -1.312276
 H         2.463140        -0.233695        -1.979614
