19
Iteration:  1113charge 0 multiplicity 1
 C        -0.000692         0.441397         0.008406
 C         1.417615         0.134911         0.001359
 O         1.838893        -1.209582         0.101527
 C         3.088288        -0.549795         0.043104
 C         2.542866         0.419814         1.082935
 C         2.981722         1.881921         1.177854
 O         2.752367         2.586663        -0.065151
 C         3.064411         1.845313        -1.245013
 C         2.513943         0.413607        -1.100258
 H        -0.601584        -0.117454         0.899572
 H        -0.282340         1.495976         0.017265
 H        -0.330706        -0.082008        -1.006367
 H         4.065555        -1.096426        -0.007077
 H         2.171380         0.030423         2.038364
 H         2.300853         2.300102         2.001598
 H         4.110177         1.962722         1.366999
 H         2.652420         2.241384        -2.172629
 H         4.090213         1.930911        -1.374821
 H         2.312564        -0.189980        -2.055899
