19
Iteration:  4453charge 0 multiplicity 1
 C        -0.105172         0.516657        -0.130455
 C         1.401721         0.124088         0.103899
 O         1.911695        -1.295057         0.219084
 C         3.117476        -0.530508         0.054972
 C         2.570243         0.502994         1.109561
 C         3.101771         1.908392         1.056796
 O         2.651987         2.598025        -0.095214
 C         2.975838         1.718591        -1.243673
 C         2.545205         0.335049        -1.041024
 H        -0.757779         0.202467         0.624096
 H        -0.165131         1.596839        -0.446011
 H        -0.565394         0.163451        -1.003996
 H         4.172669        -1.004395         0.030688
 H         2.549679         0.249558         2.151832
 H         2.625423         2.415573         1.914343
 H         4.267673         2.179650         1.320878
 H         2.552051         2.250382        -2.122200
 H         4.070282         1.854974        -1.482703
 H         2.189573        -0.114555        -1.973917
