19
Iteration:  3062
 C        -0.045560         0.421452         0.023006
 C         1.450397         0.165294         0.023290
 O         1.839240        -1.281569         0.071636
 C         3.143036        -0.469696         0.124975
 C         2.449772         0.469312         1.179586
 C         3.077326         1.921488         1.117716
 O         2.687190         2.597659        -0.168923
 C         3.034361         1.771777        -1.285131
 C         2.588480         0.353600        -1.057316
 H        -0.489740        -0.171777         0.803560
 H        -0.237238         1.390756         0.297750
 H        -0.528656         0.229760        -0.910422
 H         4.116260        -0.970107         0.276188
 H         2.262374         0.010649         2.149161
 H         2.494605         2.639287         1.628437
 H         4.229825         2.086294         1.243006
 H         2.346521         2.167765        -2.113399
 H         4.085394         1.767417        -1.498115
 H         2.169891        -0.255088        -1.927105
