19
Iteration:   374
 C         0.005218         0.491806         0.126218
 C         1.459889         0.132564         0.018563
 O         1.810812        -1.298480         0.033038
 C         3.083999        -0.519375        -0.010392
 C         2.496921         0.481398         1.082902
 C         2.924731         1.899592         1.165704
 O         2.775340         2.591826        -0.075295
 C         3.084263         1.805593        -1.245679
 C         2.561532         0.378722        -1.118706
 H        -0.422888         0.307028         1.162015
 H        -0.070874         1.499573        -0.151677
 H        -0.532610        -0.327585        -0.602925
 H         4.069961        -1.060917        -0.065093
 H         2.370828         0.090279         2.104513
 H         2.221099         2.382584         1.909799
 H         3.905862         1.974016         1.678789
 H         2.356424         2.153872        -1.982685
 H         4.176784         1.865903        -1.575564
 H         2.394948        -0.070550        -2.120465
