19
Iteration:   460charge 0 multiplicity 1
 C        -0.051495         0.401190        -0.133163
 C         1.436510         0.183141         0.124054
 O         1.768260        -1.257207         0.135079
 C         3.084935        -0.483080        -0.017644
 C         2.628283         0.480589         1.130670
 C         3.146829         1.867197         1.238394
 O         2.716902         2.623290        -0.057700
 C         2.970548         1.796500        -1.267912
 C         2.479606         0.314708        -1.123700
 H        -0.637233        -0.268049         0.529018
 H        -0.445594         1.330454        -0.028495
 H        -0.419878         0.139502        -1.233401
 H         4.102034        -0.941961         0.058570
 H         2.739515        -0.040291         2.063514
 H         2.722647         2.625189         1.944776
 H         4.231513         1.951262         1.549060
 H         2.443507         2.333467        -2.009529
 H         4.046011         1.967332        -1.462177
 H         2.352696        -0.125867        -2.144425
