19
Iteration:  3637
 C         0.051211         0.454974         0.012631
 C         1.464610         0.183647         0.095223
 O         1.820628        -1.280302         0.132843
 C         3.095712        -0.513605         0.063934
 C         2.529886         0.576486         1.094408
 C         3.014363         1.926463         1.091662
 O         2.674799         2.578831        -0.181493
 C         3.031728         1.729443        -1.255891
 C         2.506167         0.312308        -1.045547
 H        -0.500350        -0.257658         0.639125
 H        -0.416180         1.465403         0.254641
 H        -0.300644         0.143940        -0.957005
 H         4.115472        -0.866287         0.056796
 H         2.292935         0.130519         2.111951
 H         2.603951         2.472352         1.943471
 H         4.067749         2.026708         1.313495
 H         2.714836         2.179067        -2.158352
 H         4.123079         1.704803        -1.277222
 H         2.289783        -0.259960        -1.919264
