19
Iteration:    45
 C        -0.017704         0.401652         0.042782
 C         1.380835         0.111201         0.040227
 O         1.851697        -1.364115         0.091736
 C         3.074375        -0.560539        -0.012864
 C         2.479535         0.451532         1.061455
 C         3.013920         1.919199         1.129004
 O         2.819055         2.673868        -0.093761
 C         3.078857         1.854398        -1.181440
 C         2.459632         0.442546        -1.079347
 H        -0.533589         0.315029         0.976178
 H        -0.147822         1.396234        -0.283740
 H        -0.563228        -0.180057        -0.671410
 H         4.039556        -1.137517         0.044840
 H         2.420712         0.002666         2.057506
 H         2.415387         2.557811         1.790262
 H         4.056316         1.990457         1.435120
 H         2.781822         2.457879        -2.062483
 H         4.152550         1.778924        -1.279342
 H         2.257820        -0.028155        -2.064886
