19
Iteration:   424charge 0 multiplicity 1
 C        -0.005353         0.412376         0.003960
 C         1.424615         0.111341         0.027451
 O         1.815740        -1.315121         0.060523
 C         3.104160        -0.521754         0.044357
 C         2.489936         0.460772         1.094012
 C         3.062587         1.912714         1.153775
 O         2.768125         2.679781        -0.064927
 C         3.025573         1.846809        -1.219740
 C         2.455000         0.392018        -1.119055
 H        -0.414983         0.183217         0.974479
 H        -0.133544         1.596263        -0.079420
 H        -0.504344        -0.163435        -0.756488
 H         4.147090        -0.892530         0.168690
 H         2.383095        -0.146671         2.046282
 H         2.517522         2.366520         2.016061
 H         4.184945         1.726173         1.274217
 H         2.639086         2.371293        -2.102852
 H         4.071392         1.640337        -1.398392
 H         2.330940        -0.331370        -1.983346
