19
Iteration:   155
 C        -0.060061         0.491839        -0.001713
 C         1.429950         0.122627         0.018857
 O         1.922625        -1.276269         0.120687
 C         3.110898        -0.451913         0.035550
 C         2.452774         0.415542         1.095539
 C         3.019979         1.840358         1.106788
 O         2.753750         2.639159        -0.099662
 C         3.032411         1.759838        -1.173964
 C         2.459770         0.439041        -1.073342
 H        -0.617181         0.007960         0.757942
 H        -0.097804         1.531860         0.097577
 H        -0.391754         0.152800        -1.057077
 H         4.140724        -1.049771         0.028168
 H         2.163395         0.019651         2.109507
 H         2.748530         2.325179         2.102088
 H         4.083167         1.586753         1.083936
 H         2.559369         2.200855        -2.164232
 H         4.133064         1.703587        -1.418646
 H         2.351529        -0.137398        -2.057214
