19
Iteration:  3326
 C        -0.153094         0.405041         0.013776
 C         1.376379         0.146387         0.061865
 O         1.876042        -1.275254         0.166657
 C         3.157025        -0.524206         0.051494
 C         2.562552         0.470523         1.061714
 C         2.957349         1.982165         1.067614
 O         2.856122         2.645390        -0.124234
 C         3.031488         1.783238        -1.238289
 C         2.537287         0.332896        -1.092588
 H        -0.589228         0.268953         1.064837
 H        -0.359250         1.312672        -0.460133
 H        -0.615920        -0.443027        -0.642388
 H         3.965328        -1.180357         0.048080
 H         2.469908         0.083503         2.091635
 H         2.245069         2.444491         1.828840
 H         3.936187         2.085366         1.664109
 H         2.562070         2.409741        -2.058513
 H         4.086668         1.778591        -1.414521
 H         2.209402        -0.279793        -2.000908
