19
Iteration:   306charge 0 multiplicity 1
 C        -0.001618         0.426451        -0.012099
 C         1.360186         0.152578        -0.065011
 O         1.877397        -1.291244         0.012361
 C         3.084378        -0.471000         0.137212
 C         2.486560         0.536065         1.183536
 C         3.169561         1.840909         1.154158
 O         2.729061         2.605844        -0.063734
 C         2.976279         1.801247        -1.271564
 C         2.496762         0.372193        -1.092525
 H        -0.509989        -0.166702         0.756398
 H        -0.203892         1.510713         0.320090
 H        -0.790295         0.186772        -0.938771
 H         4.076183        -1.012143         0.262568
 H         2.077562         0.092984         2.117396
 H         2.874304         2.422977         2.106013
 H         4.286192         1.793574         1.203468
 H         2.357750         2.330552        -2.000001
 H         4.084947         1.740790        -1.476086
 H         2.424034        -0.281409        -2.029572
