19
Iteration:  4141charge 0 multiplicity 1
 C        -0.038607         0.342831        -0.096832
 C         1.441357         0.172469         0.034968
 O         1.859009        -1.226050         0.209733
 C         3.111568        -0.485517         0.106709
 C         2.542433         0.517214         1.129658
 C         3.067207         1.954950         1.186885
 O         2.864759         2.567368        -0.142497
 C         2.967568         1.734936        -1.302782
 C         2.361885         0.381222        -1.098259
 H        -0.753115        -0.020282         0.805637
 H        -0.209778         1.423834        -0.132059
 H        -0.338835        -0.318240        -1.078953
 H         4.063001        -0.932747         0.136469
 H         2.241376         0.087739         2.184595
 H         2.357080         2.457435         1.833183
 H         4.115628         2.076110         1.309307
 H         2.383998         2.303752        -2.040927
 H         4.030335         1.753738        -1.629094
 H         2.339427        -0.156665        -2.075204
