19
Iteration:  4564charge 0 multiplicity 1
 C        -0.102475         0.377767         0.052973
 C         1.415040         0.204060         0.061829
 O         1.878454        -1.351337         0.165775
 C         3.027276        -0.558535         0.039286
 C         2.593096         0.539171         1.055260
 C         2.902244         2.034572         1.184520
 O         2.840044         2.616513        -0.166119
 C         3.111979         1.784423        -1.284534
 C         2.483227         0.359746        -1.100352
 H        -0.592981        -0.247628         0.782457
 H        -0.337554         1.423655         0.204919
 H        -0.377617        -0.174404        -0.786654
 H         4.053152        -1.053632        -0.127840
 H         2.364764         0.174583         2.064086
 H         2.213100         2.413094         1.906821
 H         3.863547         2.244156         1.546163
 H         2.814731         2.294194        -2.241516
 H         4.239339         1.752759        -1.692929
 H         2.346644        -0.410328        -1.849370
