19
Iteration:  4990
 C        -0.096577         0.365798        -0.082820
 C         1.428800         0.175418         0.047756
 O         1.848265        -1.262972         0.199146
 C         3.105083        -0.553670         0.163252
 C         2.563423         0.453639         1.146816
 C         3.044151         1.974477         1.090189
 O         2.854747         2.652805        -0.190374
 C         2.947069         1.794667        -1.275786
 C         2.500717         0.375910        -1.049139
 H        -0.623535        -0.413917         0.512803
 H        -0.563777         1.448550         0.102265
 H        -0.366825         0.037158        -1.118525
 H         4.043333        -1.211706         0.095176
 H         2.387638        -0.036031         2.122998
 H         2.663758         2.715931         2.007422
 H         4.151647         1.970309         1.378785
 H         2.328314         2.116098        -2.122215
 H         3.909272         1.825317        -1.734562
 H         2.160982        -0.167417        -1.955525
