19
Iteration:  1023charge 0 multiplicity 1
 C        -0.158154         0.411431        -0.018464
 C         1.408923         0.149209        -0.057466
 O         1.822317        -1.267459         0.011100
 C         3.103577        -0.530953         0.104244
 C         2.542419         0.462939         1.138822
 C         3.049843         1.905564         1.177808
 O         2.781771         2.632056        -0.075932
 C         3.029477         1.820262        -1.245079
 C         2.620343         0.364143        -1.030015
 H        -0.564324        -0.125162         0.943010
 H        -0.543752         1.434292         0.037105
 H        -0.634615        -0.126803        -0.855621
 H         4.142965        -0.920537         0.260004
 H         2.304312         0.030630         2.067551
 H         2.672041         2.536521         1.958614
 H         4.155663         1.893506         1.161835
 H         2.385265         2.378877        -1.853228
 H         4.031933         1.810427        -1.727333
 H         2.475144        -0.183446        -1.887451
