19
Iteration:   339charge 0 multiplicity 1
 C        -0.070939         0.479998        -0.026433
 C         1.372922         0.146413         0.110167
 O         1.885924        -1.341041         0.121960
 C         3.066715        -0.511223        -0.020975
 C         2.614197         0.448075         1.048890
 C         3.039221         1.835235         1.180694
 O         2.746900         2.687672        -0.071838
 C         3.066755         1.766283        -1.199646
 C         2.437134         0.398178        -1.095551
 H        -0.657857         0.061464         0.810318
 H        -0.289582         1.605590        -0.155371
 H        -0.378493         0.057755        -1.194008
 H         4.125216        -0.936291        -0.070152
 H         2.591820         0.116310         2.133728
 H         2.258395         2.241565         1.934972
 H         4.083297         2.109814         1.350319
 H         2.697804         2.316106        -2.081934
 H         4.185609         1.836414        -1.510086
 H         2.191434        -0.161249        -2.071671
