19
Iteration:    67charge 0 multiplicity 1
 C        -0.126490         0.488602         0.073438
 C         1.326820         0.047007        -0.062210
 O         1.887178        -1.379184        -0.020073
 C         3.149379        -0.455262         0.110243
 C         2.451723         0.497564         1.081811
 C         3.044297         1.882587         1.098072
 O         2.805466         2.753549        -0.032226
 C         3.047823         1.762900        -1.228205
 C         2.550150         0.313406        -1.022073
 H        -0.474382         0.273011         1.055458
 H        -0.236362         1.514450        -0.011804
 H        -0.874704         0.070022        -0.587696
 H         4.151118        -0.992766         0.059247
 H         2.275180         0.070051         2.073274
 H         2.769039         2.506419         1.968359
 H         4.124206         1.797174         1.096588
 H         2.512065         2.297867        -2.055922
 H         4.083775         1.855958        -1.486804
 H         2.508892        -0.273283        -1.981463
