19
Iteration:   241
 C        -0.092750         0.483569        -0.039564
 C         1.347828         0.135809         0.103827
 O         1.979130        -1.286555         0.071875
 C         3.136888        -0.421239        -0.093631
 C         2.534551         0.516688         1.083059
 C         2.979066         1.888008         1.218709
 O         2.835390         2.558878        -0.059235
 C         3.038119         1.673077        -1.172952
 C         2.399549         0.381846        -1.081351
 H        -0.675102         0.314645         0.864724
 H        -0.220349         1.581013        -0.298105
 H        -0.800567         0.056185        -0.967522
 H         4.109638        -1.008323        -0.222412
 H         2.339110         0.023710         2.056970
 H         2.462971         2.676745         1.869669
 H         4.054900         2.004552         1.474681
 H         2.579711         2.263236        -2.015311
 H         4.120715         1.601130        -1.259514
 H         2.130236        -0.215549        -2.011743
