19
Iteration:  3707
 C         0.012696         0.417950        -0.016191
 C         1.423138         0.151108         0.042279
 O         1.882514        -1.334391         0.164693
 C         3.121659        -0.436957         0.072252
 C         2.456619         0.538227         1.116896
 C         3.037131         1.918301         1.150534
 O         2.805328         2.597762        -0.186504
 C         3.005616         1.767429        -1.309983
 C         2.441189         0.405311        -1.024168
 H        -0.479390         0.167699         1.017106
 H        -0.212057         1.451977        -0.298299
 H        -0.603451        -0.327966        -0.719304
 H         3.983056        -1.256046        -0.099601
 H         2.270809         0.050362         2.055418
 H         2.345696         2.448344         1.814552
 H         3.886001         2.082507         1.711572
 H         2.558401         2.262330        -2.239815
 H         4.097747         1.659924        -1.491895
 H         2.420639        -0.334304        -1.872602
