19
Iteration:  3847
 C        -0.166441         0.542560         0.070086
 C         1.445897         0.093072         0.122714
 O         1.893485        -1.286158         0.097163
 C         3.161240        -0.506316         0.071420
 C         2.559876         0.518869         1.096405
 C         2.914344         1.996579         1.118255
 O         2.707479         2.541606        -0.171173
 C         3.140990         1.746460        -1.259156
 C         2.542551         0.266969        -1.117017
 H        -0.813548         0.281867         0.961077
 H         0.039448         1.554889         0.042794
 H        -0.600461         0.269483        -0.970999
 H         4.138625        -1.005101         0.045315
 H         2.242026         0.025941         2.089141
 H         2.300531         2.582358         1.864907
 H         3.847624         2.179619         1.492149
 H         2.561875         2.115155        -2.129436
 H         4.312635         1.872357        -1.439439
 H         2.421288        -0.316546        -2.096875
