19
Iteration:  1850
 C        -0.044680         0.369610        -0.162381
 C         1.418371         0.128881        -0.004940
 O         1.822896        -1.316416         0.149950
 C         3.098249        -0.482585         0.119806
 C         2.529150         0.497951         1.071540
 C         3.135363         1.913984         1.170146
 O         2.799528         2.636434        -0.044813
 C         2.933637         1.826192        -1.244562
 C         2.494478         0.385552        -1.073283
 H        -0.548589        -0.220371         0.577271
 H        -0.347720         1.568129        -0.033943
 H        -0.502368         0.015634        -1.091050
 H         4.110750        -1.130959         0.295545
 H         2.491677         0.136223         2.083122
 H         2.708366         2.443363         1.987380
 H         4.200934         1.856389         1.467336
 H         2.232425         2.296859        -1.908558
 H         4.036927         1.786669        -1.622415
 H         2.130829         0.004915        -2.042172
