19
Iteration:  1781
 C        -0.031531         0.421659         0.101147
 C         1.457010         0.146970         0.006606
 O         1.842556        -1.290745         0.066067
 C         3.094391        -0.550737        -0.005319
 C         2.391106         0.500421         1.046065
 C         2.897754         1.906337         1.157227
 O         2.766213         2.633595        -0.099569
 C         3.141755         1.802748        -1.237428
 C         2.600297         0.386323        -1.090035
 H        -0.217958         0.254348         1.242461
 H        -0.252573         1.462492        -0.134346
 H        -0.624031        -0.405858        -0.413618
 H         4.112566        -1.037220         0.229719
 H         2.166964        -0.052896         1.963564
 H         2.505327         2.540196         1.927885
 H         3.965655         1.893293         1.419988
 H         2.526627         2.219463        -2.049236
 H         4.288339         1.938035        -1.397453
 H         2.423334        -0.109250        -2.090438
