19
Iteration:  3129
 C        -0.042345         0.332365        -0.016673
 C         1.389387         0.144137         0.112528
 O         1.925420        -1.224894         0.124494
 C         3.097501        -0.457637         0.065719
 C         2.409280         0.489599         1.159991
 C         3.038939         1.946399         1.104692
 O         2.847914         2.606082        -0.164490
 C         3.011592         1.794586        -1.286730
 C         2.462587         0.340165        -1.062268
 H        -0.563183         0.253686         0.931737
 H        -0.135129         1.287019        -0.233988
 H        -0.501409        -0.232736        -0.832996
 H         4.031178        -1.085575         0.228763
 H         2.476726         0.038261         2.151989
 H         2.438378         2.357728         1.824231
 H         4.040273         1.732075         1.303261
 H         2.383517         2.192206        -2.130329
 H         4.057567         1.872251        -1.531370
 H         2.244798        -0.033600        -2.089337
