19
Iteration:  3031charge 0 multiplicity 1
 C         0.017544         0.544350         0.059076
 C         1.446750         0.094134        -0.032053
 O         1.897490        -1.363790         0.159985
 C         3.145801        -0.490939         0.109506
 C         2.482127         0.449488         1.067250
 C         2.962938         1.920400         1.085210
 O         2.716659         2.601350        -0.134047
 C         2.995867         1.847109        -1.265931
 C         2.541140         0.320607        -1.073622
 H        -0.482423         0.142076         0.989911
 H        -0.057485         1.577934         0.143302
 H        -0.628630         0.242597        -0.823742
 H         4.207208        -0.924659         0.316447
 H         2.171488         0.142865         2.059139
 H         2.242893         2.428093         1.655584
 H         4.000469         2.005572         1.460870
 H         2.522075         2.318805        -2.143799
 H         4.085320         1.754709        -1.518601
 H         2.254791        -0.165240        -2.040590
