19
Iteration:   968
 C        -0.131634         0.459818        -0.144700
 C         1.403714         0.153902         0.044820
 O         1.870562        -1.290199         0.151661
 C         3.107181        -0.515438         0.013651
 C         2.587074         0.498413         1.087136
 C         3.114990         1.878285         1.144325
 O         2.727384         2.579879        -0.034331
 C         2.943926         1.829386        -1.211492
 C         2.557900         0.349505        -1.054975
 H        -0.809077         0.060408         0.679740
 H        -0.214045         1.607983        -0.136585
 H        -0.493574         0.186102        -1.119177
 H         4.176618        -0.857592         0.074658
 H         2.401330         0.089801         2.060983
 H         2.621773         2.294626         2.011968
 H         4.172466         1.958098         1.394857
 H         2.439642         2.235976        -2.031560
 H         4.059187         1.614340        -1.493024
 H         2.326013        -0.121571        -1.951926
