19
Iteration:  1303
 C        -0.097282         0.443665        -0.099941
 C         1.352909         0.100159         0.081167
 O         1.861151        -1.361906         0.100007
 C         3.092551        -0.503370        -0.031640
 C         2.625287         0.478899         1.159231
 C         3.011080         1.944690         1.153262
 O         2.771280         2.668705        -0.072616
 C         3.064837         1.783832        -1.173457
 C         2.480938         0.386098        -1.058659
 H        -0.699278        -0.028729         0.591339
 H        -0.168363         1.587065         0.035900
 H        -0.390268         0.255713        -1.083528
 H         3.926207        -1.069267        -0.098723
 H         2.522992        -0.087455         2.079171
 H         2.427560         2.436456         1.972935
 H         4.063839         2.007757         1.253349
 H         2.618575         2.232817        -2.074995
 H         4.178230         1.814172        -1.543716
 H         2.283001        -0.114990        -2.015845
