19
Iteration:   568charge 0 multiplicity 1
 C        -0.166431         0.479122         0.009570
 C         1.404587         0.066080         0.079795
 O         1.918063        -1.330313         0.105975
 C         3.046788        -0.494538        -0.048628
 C         2.623417         0.415823         1.063510
 C         2.948829         1.982274         1.088108
 O         2.742055         2.644330        -0.080776
 C         3.145641         1.770248        -1.127245
 C         2.449276         0.429141        -1.080741
 H        -0.575463         0.358906         1.030701
 H        -0.082215         1.525754        -0.329678
 H        -0.528290        -0.250205        -0.809213
 H         4.017918        -0.982917        -0.047512
 H         2.454354        -0.132932         1.975916
 H         2.449780         2.494586         1.923799
 H         4.001086         1.995470         1.362539
 H         2.924314         2.216838        -2.060827
 H         4.260671         1.547981        -1.246734
 H         2.332831        -0.023445        -2.105021
