19
Iteration:  3363
 C        -0.131598         0.423041         0.091181
 C         1.393698         0.116483         0.025465
 O         1.914148        -1.267607         0.074054
 C         3.151382        -0.446617         0.142708
 C         2.422830         0.527093         1.106726
 C         2.986091         1.897412         1.052681
 O         2.798691         2.586869        -0.124966
 C         3.053817         1.798337        -1.264490
 C         2.550696         0.322340        -1.090579
 H        -0.549651         0.433998         1.091477
 H        -0.451368         1.437219        -0.397156
 H        -0.649037        -0.297433        -0.491335
 H         4.247773        -0.959170         0.227602
 H         2.309079         0.063425         2.117262
 H         2.584204         2.588535         1.763559
 H         3.995344         1.771936         1.175037
 H         2.616617         2.282083        -2.115193
 H         4.154368         1.738302        -1.444579
 H         2.460989        -0.272245        -1.969781
