19
Iteration:  4563
 C        -0.098533         0.373784         0.048139
 C         1.407843         0.206593         0.062405
 O         1.874434        -1.361597         0.169043
 C         3.036434        -0.557781         0.034578
 C         2.593004         0.542192         1.052913
 C         2.902030         2.037729         1.192194
 O         2.838045         2.622869        -0.167940
 C         3.117996         1.786450        -1.288629
 C         2.482506         0.362827        -1.097428
 H        -0.617902        -0.201241         0.802773
 H        -0.369891         1.453433         0.247016
 H        -0.372010        -0.186274        -0.778293
 H         4.059031        -1.090147        -0.153066
 H         2.374000         0.180891         2.060133
 H         2.224281         2.391443         1.872238
 H         3.834753         2.198087         1.550550
 H         2.813802         2.295315        -2.228739
 H         4.230181         1.745919        -1.699162
 H         2.376602        -0.435201        -1.832982
