19
Iteration:  3855
 C        -0.085499         0.522643         0.099299
 C         1.381395         0.127988         0.031713
 O         1.941925        -1.289874         0.111127
 C         3.126829        -0.497439         0.050989
 C         2.502662         0.493219         1.137858
 C         2.910876         1.971026         1.132279
 O         2.712634         2.554929        -0.197220
 C         3.114204         1.739487        -1.250324
 C         2.589762         0.289335        -1.104076
 H        -0.731544         0.400638         0.975173
 H         0.026996         1.619663         0.026358
 H        -0.546988         0.230654        -0.848747
 H         3.971311        -1.107427         0.206073
 H         2.319113        -0.000158         2.185557
 H         2.204861         2.702182         1.776114
 H         4.018111         2.052314         1.390412
 H         2.574397         2.208693        -2.058233
 H         4.095475         1.671569        -1.485001
 H         2.361414        -0.228378        -2.058092
