19
Iteration:  3958
 C        -0.134896         0.410674        -0.053317
 C         1.368874         0.139171         0.033096
 O         1.902588        -1.356158         0.206223
 C         3.122949        -0.544613         0.167744
 C         2.493622         0.533610         1.049355
 C         3.107473         1.966800         1.058940
 O         2.838122         2.673553        -0.126731
 C         2.964898         1.794580        -1.273427
 C         2.504224         0.351939        -1.046586
 H        -0.735621        -0.041749         0.745889
 H        -0.496533         1.469887        -0.220689
 H        -0.541725        -0.159732        -0.904506
 H         4.147733        -1.034954         0.274293
 H         2.346182        -0.014718         2.022836
 H         2.521929         2.629062         1.820574
 H         4.258581         1.877153         1.372619
 H         2.517499         2.326101        -2.130918
 H         3.957491         1.703131        -1.511668
 H         2.297647        -0.105562        -2.057561
