19
Iteration:  2471charge 0 multiplicity 1
 C        -0.046587         0.356468         0.050967
 C         1.411050         0.096277         0.082931
 O         1.893113        -1.300321         0.126709
 C         3.056406        -0.434764        -0.003112
 C         2.531364         0.431557         1.092879
 C         2.849923         1.926030         1.155088
 O         2.882395         2.593011        -0.086139
 C         3.121798         1.818286        -1.286126
 C         2.463332         0.452497        -1.144622
 H        -0.717971         0.174463         0.857232
 H        -0.120729         1.461011         0.030962
 H        -0.318260        -0.040158        -0.910887
 H         3.992042        -0.920502         0.134774
 H         2.420699        -0.053643         2.044253
 H         2.021306         2.328959         1.686999
 H         3.859642         2.089394         1.673241
 H         2.576160         2.366047        -2.079788
 H         4.268321         1.843502        -1.495346
 H         2.214561        -0.139092        -2.058129
