19
Iteration:    32charge 0 multiplicity 1
 C        -0.094440         0.369916        -0.025384
 C         1.448972         0.163901         0.008967
 O         1.835431        -1.190939         0.121325
 C         3.090536        -0.517156        -0.054146
 C         2.617191         0.454876         1.158361
 C         2.965807         1.924323         1.212930
 O         2.780810         2.540417        -0.067641
 C         3.113773         1.795151        -1.268612
 C         2.437237         0.429990        -1.098525
 H        -0.378645         0.153290         1.017228
 H        -0.252107         1.447253        -0.309718
 H        -0.535526        -0.252480        -0.648845
 H         3.900423        -1.130152        -0.287127
 H         2.398406        -0.030562         2.018096
 H         2.331682         2.370437         1.964269
 H         3.981373         2.054934         1.577432
 H         2.657251         2.310605        -2.078205
 H         4.172977         1.593824        -1.416699
 H         2.162651        -0.006510        -1.989533
