19
Iteration:   688charge 0 multiplicity 1
 C        -0.061881         0.445385        -0.003451
 C         1.451134         0.171961         0.043941
 O         1.826516        -1.288549         0.053832
 C         3.107355        -0.501171         0.055325
 C         2.551474         0.470901         1.077530
 C         3.022668         1.933809         1.172054
 O         2.732750         2.555814        -0.068469
 C         3.021841         1.805646        -1.222590
 C         2.533636         0.372178        -1.115201
 H        -0.390518        -0.152601         0.921384
 H        -0.261343         1.479051         0.062852
 H        -0.477686        -0.023309        -0.990532
 H         3.995656        -1.039330         0.112156
 H         2.318245         0.163273         2.060720
 H         2.375189         2.323689         1.949876
 H         4.067929         2.148903         1.558217
 H         2.678129         2.291345        -2.182002
 H         4.106391         1.746122        -1.344802
 H         2.369035        -0.047481        -2.098480
