19
Iteration:  3371charge 0 multiplicity 1
 C        -0.191630         0.432721         0.067907
 C         1.325570         0.143404         0.000833
 O         1.924428        -1.283910         0.122252
 C         3.153303        -0.495698         0.128492
 C         2.514016         0.494995         1.083476
 C         2.971523         1.877416         1.094323
 O         2.769720         2.617186        -0.165231
 C         3.072212         1.781882        -1.275888
 C         2.575082         0.383549        -1.055637
 H        -0.477761         0.302689         1.143281
 H        -0.302661         1.425632        -0.362942
 H        -0.751179        -0.295342        -0.588596
 H         4.097636        -0.962805         0.344916
 H         2.304859         0.144353         2.124530
 H         2.649716         2.481408         1.994043
 H         4.252117         1.833175         1.144550
 H         2.521335         2.178255        -2.165597
 H         4.124136         1.782717        -1.502768
 H         2.678305        -0.089697        -2.059909
