19
Iteration:  2032charge 0 multiplicity 1
 C        -0.107355         0.442540        -0.134981
 C         1.377137         0.158809         0.085931
 O         1.921718        -1.344020         0.110859
 C         3.115801        -0.517877         0.024690
 C         2.579600         0.459043         1.074991
 C         2.991219         1.936839         1.198973
 O         2.910723         2.669853        -0.039677
 C         2.934424         1.758481        -1.283268
 C         2.485373         0.357745        -1.002069
 H        -0.749909        -0.165200         0.569042
 H        -0.221079         1.471806        -0.229106
 H        -0.231186         0.240034        -1.208674
 H         3.997988        -0.941120         0.131135
 H         2.414587         0.068569         2.121669
 H         2.180756         2.571231         1.748935
 H         3.979300         1.987735         1.680372
 H         2.003697         2.132737        -1.829506
 H         3.891316         1.880215        -1.758989
 H         2.158704        -0.057120        -2.021293
