19
Iteration:  2424
 C        -0.094725         0.408750        -0.009387
 C         1.376865         0.053986         0.003355
 O         1.826992        -1.389771         0.060502
 C         3.126902        -0.485623         0.139209
 C         2.482508         0.499327         1.067177
 C         3.036130         1.913253         1.133717
 O         2.796728         2.624716        -0.089584
 C         3.039524         1.940398        -1.288175
 C         2.581189         0.397117        -1.017534
 H        -0.566469         0.268171         1.007110
 H        -0.322471         1.439097        -0.053683
 H        -0.550665        -0.196133        -0.821401
 H         4.201100        -1.028609         0.120491
 H         2.303705         0.129976         2.115288
 H         2.401053         2.392054         1.800468
 H         4.091871         1.771101         1.493336
 H         2.408213         2.430673        -1.970978
 H         4.134171         1.956524        -1.693705
 H         2.584888        -0.099766        -1.965545
