19
Iteration:  3570
 C        -0.086965         0.397020        -0.001807
 C         1.425712         0.164950        -0.005731
 O         1.858853        -1.289689         0.115353
 C         3.109695        -0.517331         0.158099
 C         2.503448         0.561012         1.172314
 C         3.045547         1.910080         1.110709
 O         2.798423         2.597833        -0.108105
 C         2.931191         1.769803        -1.360560
 C         2.589827         0.347930        -1.094757
 H        -0.531589         0.228141         0.992466
 H        -0.183776         1.561994        -0.247760
 H        -0.551797        -0.232596        -0.727201
 H         4.040230        -1.046855         0.200028
 H         2.311343         0.294477         2.280295
 H         2.494186         2.549048         1.886153
 H         4.169072         1.976924         1.491068
 H         2.249013         2.198064        -2.083006
 H         3.986357         1.790981        -1.786342
 H         2.526455        -0.301922        -1.954067
