19
Iteration:  1278charge 0 multiplicity 1
 C        -0.031781         0.375180         0.062803
 C         1.428183         0.205589        -0.011739
 O         1.785636        -1.249794         0.107065
 C         3.154363        -0.568018         0.034376
 C         2.501408         0.491270         1.091275
 C         2.940548         1.867662         1.112356
 O         2.739027         2.592409        -0.054054
 C         3.148639         1.859275        -1.223411
 C         2.518513         0.396588        -1.126742
 H        -0.437897        -0.018914         1.037108
 H        -0.216215         1.339974        -0.024240
 H        -0.505806        -0.083027        -0.856214
 H         4.149616        -1.176512         0.135462
 H         2.183286         0.001646         2.026683
 H         2.328370         2.415597         1.925693
 H         4.010646         1.853949         1.295618
 H         2.796264         2.437121        -2.113424
 H         4.268923         1.850927        -1.477638
 H         2.352173        -0.079170        -2.154953
