19
Iteration:  2997charge 0 multiplicity 1
 C        -0.068443         0.501964         0.000228
 C         1.421352         0.125047         0.095172
 O         1.866750        -1.332410         0.117984
 C         3.154198        -0.543613         0.000841
 C         2.613602         0.512640         1.086026
 C         2.969707         1.998137         1.107974
 O         2.720746         2.569122        -0.121520
 C         3.031203         1.781560        -1.213709
 C         2.506778         0.317364        -1.078072
 H        -0.637460         0.307969         0.935390
 H        -0.121215         1.489433        -0.357883
 H        -0.488233        -0.176337        -0.768016
 H         4.209848        -0.997987         0.061195
 H         2.350030         0.120014         2.066157
 H         2.255003         2.391248         1.782397
 H         3.908915         2.317293         1.621793
 H         2.592615         2.351949        -2.108422
 H         4.175755         1.791457        -1.254141
 H         2.061798        -0.153551        -1.996284
