19
Iteration:  4278charge 0 multiplicity 1
 C        -0.030988         0.495411        -0.075784
 C         1.433128         0.136491         0.001345
 O         1.887088        -1.348616         0.186222
 C         3.072578        -0.449217         0.159446
 C         2.494602         0.466645         1.111374
 C         3.098020         1.909488         1.097437
 O         2.712210         2.566488        -0.124725
 C         2.969629         1.812582        -1.299214
 C         2.545358         0.311302        -1.024181
 H        -0.667595         0.318402         0.807457
 H        -0.134056         1.693616        -0.053510
 H        -0.432418         0.005905        -0.945477
 H         4.196158        -0.801086         0.085621
 H         2.343102        -0.103697         2.023501
 H         2.470409         2.610242         1.896538
 H         4.156453         1.992393         1.089337
 H         2.258843         2.355421        -2.085614
 H         4.089174         1.993490        -1.556342
 H         2.388615        -0.200222        -1.977539
