19
Iteration:  1596charge 0 multiplicity 1
 C        -0.123684         0.437314         0.090552
 C         1.387754         0.117101         0.013185
 O         1.871948        -1.313916         0.049025
 C         3.140286        -0.511511         0.002139
 C         2.593307         0.418656         1.124395
 C         2.825631         1.897002         1.132837
 O         2.832003         2.608573        -0.082931
 C         3.152365         1.866607        -1.278842
 C         2.515755         0.433867        -1.083293
 H        -0.557491         0.386073         1.061963
 H        -0.278204         1.496908        -0.119134
 H        -0.725063        -0.151257        -0.577749
 H         4.051943        -1.220079         0.018423
 H         2.342283         0.035146         2.102903
 H         2.150213         2.220273         1.888767
 H         3.819417         2.156891         1.703253
 H         2.664973         2.264221        -2.132423
 H         4.342628         1.872075        -1.507729
 H         2.280118        -0.132643        -2.003968
