19
Iteration:  2229charge 0 multiplicity 1
 C        -0.027567         0.404697        -0.072968
 C         1.429857         0.120166         0.021076
 O         1.833411        -1.288091         0.100199
 C         3.101751        -0.440612         0.082982
 C         2.493968         0.528148         1.076104
 C         3.056999         1.928672         1.159728
 O         2.771703         2.574720        -0.045866
 C         3.000553         1.787665        -1.219458
 C         2.464255         0.403302        -1.109463
 H        -0.595955        -0.266231         0.732735
 H        -0.385101         1.407806        -0.076010
 H        -0.378750        -0.152031        -1.015422
 H         4.062332        -1.012008         0.117994
 H         2.499626         0.056048         2.094795
 H         2.782205         2.598406         2.087507
 H         4.092872         1.774046         1.359996
 H         2.712838         2.363680        -2.200699
 H         4.092499         1.701287        -1.349470
 H         2.438696        -0.285867        -1.967399
