19
Iteration:  3300charge 0 multiplicity 1
 C        -0.039808         0.387879        -0.002685
 C         1.429439         0.092745         0.034040
 O         1.847236        -1.304840         0.209312
 C         3.107034        -0.499810         0.065667
 C         2.537309         0.463790         1.118838
 C         2.932621         2.003040         1.124648
 O         2.841956         2.621805        -0.160335
 C         3.017535         1.794891        -1.283091
 C         2.465373         0.402680        -1.108887
 H        -0.577562        -0.001654         0.828816
 H        -0.164284         1.500974        -0.223115
 H        -0.405486        -0.062965        -0.886664
 H         4.008185        -1.127291         0.042875
 H         2.488414         0.001599         2.102006
 H         2.434996         2.592690         1.888695
 H         4.100016         1.842128         1.573052
 H         2.570842         2.433537        -2.023321
 H         4.105270         1.696885        -1.530872
 H         2.264121        -0.137688        -2.027863
