19
Iteration:  3588charge 0 multiplicity 1
 C         0.063441         0.430761        -0.037673
 C         1.407993         0.167468         0.032607
 O         1.861796        -1.328246         0.206430
 C         3.173105        -0.484496         0.080283
 C         2.401712         0.477020         1.091393
 C         3.022771         1.974968         1.079172
 O         2.784494         2.624828        -0.153550
 C         2.964104         1.737856        -1.246756
 C         2.506632         0.357018        -1.047208
 H        -0.555334         0.078996         0.811991
 H        -0.111146         1.446221        -0.017712
 H        -0.498807         0.009745        -0.900080
 H         4.078748        -1.124224         0.126418
 H         2.143760         0.000670         2.019293
 H         2.917557         2.688302         1.934342
 H         4.074093         1.909046         1.359086
 H         2.252920         2.217706        -1.998422
 H         3.924433         1.862753        -1.694310
 H         2.203797        -0.210729        -1.998131
