19
Iteration:  4373
 C        -0.081642         0.373760         0.098211
 C         1.403382         0.148606         0.042377
 O         1.895581        -1.281199         0.129454
 C         3.107166        -0.498246         0.041724
 C         2.428085         0.500048         1.039398
 C         2.904542         2.014049         1.145603
 O         2.838853         2.574312        -0.151339
 C         3.182180         1.761647        -1.291553
 C         2.441965         0.352418        -1.071353
 H        -0.618945         0.096000         0.999436
 H        -0.160597         1.421827         0.177448
 H        -0.451475        -0.152792        -0.758243
 H         4.124945        -0.860072         0.171079
 H         2.532119         0.179262         2.097437
 H         2.319627         2.658556         1.724654
 H         4.071047         1.842906         1.432810
 H         2.645115         2.264872        -2.058938
 H         4.260902         1.710675        -1.560085
 H         2.144164        -0.128642        -2.023008
