19
Iteration:  2054charge 0 multiplicity 1
 C        -0.108977         0.406800        -0.098934
 C         1.433866         0.079198         0.021740
 O         1.884643        -1.337567         0.108304
 C         3.134131        -0.477316         0.044307
 C         2.520320         0.499655         1.123381
 C         2.962545         1.936754         1.214890
 O         2.924858         2.610600        -0.087605
 C         2.950550         1.839377        -1.245551
 C         2.461287         0.374112        -1.054510
 H        -0.518042        -0.122332         0.795673
 H        -0.242749         1.458311        -0.049519
 H        -0.517260         0.221804        -1.094510
 H         3.998888        -0.992051        -0.013432
 H         2.385982         0.094065         2.168428
 H         2.239207         2.646608         1.827174
 H         4.022852         1.942378         1.471863
 H         2.375860         2.409810        -2.066290
 H         3.998586         1.679375        -1.435959
 H         2.312829        -0.061666        -2.087707
