19
Iteration:  2559charge 0 multiplicity 1
 C        -0.006936         0.432348        -0.125194
 C         1.436801         0.100396         0.033284
 O         1.856775        -1.323803         0.069188
 C         3.117593        -0.557690         0.093311
 C         2.592620         0.521060         1.133057
 C         3.095703         1.975468         1.126776
 O         2.688051         2.659054        -0.023414
 C         2.962962         1.805233        -1.221348
 C         2.432672         0.333403        -1.035563
 H        -0.642973         0.053394         0.647639
 H        -0.244511         1.540043        -0.237184
 H        -0.287915        -0.105851        -1.016567
 H         4.046435        -1.254704         0.003563
 H         2.379643         0.099510         2.090367
 H         2.734689         2.636196         1.883530
 H         4.216112         1.892243         1.293112
 H         2.605512         2.398492        -2.037976
 H         3.997704         1.750380        -1.495226
 H         2.143706        -0.144726        -2.001638
