19
Iteration:  2458charge 0 multiplicity 1
 C         0.018574         0.431717         0.015045
 C         1.444564         0.178430         0.026955
 O         1.875307        -1.315657         0.129338
 C         3.178800        -0.448791        -0.010308
 C         2.461902         0.503620         1.044637
 C         2.843299         1.893392         1.175961
 O         2.879817         2.568060        -0.093502
 C         3.038050         1.795792        -1.229354
 C         2.408134         0.401362        -1.043774
 H        -0.288165        -0.211258         0.891108
 H        -0.257109         1.425882        -0.242227
 H        -0.483678        -0.164986        -0.766536
 H         4.214467        -0.973547        -0.302100
 H         2.280703         0.012944         2.017957
 H         2.183403         2.434776         1.776740
 H         3.825552         2.060233         1.744378
 H         2.647021         2.376398        -2.011215
 H         4.134990         1.534288        -1.520463
 H         2.190222        -0.046139        -2.000460
