19
Iteration:  4785
 C        -0.136591         0.374894        -0.029190
 C         1.353920         0.137034         0.054937
 O         1.953929        -1.300027         0.194420
 C         3.066965        -0.463368         0.075533
 C         2.478610         0.540484         1.120895
 C         3.036222         1.991518         1.134287
 O         2.858849         2.613072        -0.147035
 C         3.018724         1.715595        -1.298670
 C         2.487816         0.364710        -1.060447
 H        -0.728231        -0.288916         0.690799
 H        -0.352476         1.457463         0.010427
 H        -0.474374         0.229718        -1.140655
 H         4.016866        -0.991356         0.151105
 H         2.581808         0.008822         2.123234
 H         2.575605         2.581484         1.901626
 H         4.031069         1.927612         1.269611
 H         2.557440         2.197536        -2.231833
 H         4.034715         1.559056        -1.507075
 H         2.334351        -0.067498        -2.080051
