19
Iteration:  4654
 C         0.056342         0.469249        -0.132576
 C         1.407113         0.096394         0.134429
 O         1.803005        -1.265848         0.203181
 C         3.138459        -0.517493         0.072070
 C         2.579063         0.561246         1.106694
 C         3.040158         1.920404         1.146241
 O         2.674114         2.514580        -0.126676
 C         2.946523         1.801784        -1.302883
 C         2.536167         0.367778        -1.050557
 H        -0.653248         0.430816         0.692517
 H        -0.039745         1.458430        -0.245129
 H        -0.317080        -0.203366        -0.917693
 H         4.010539        -1.158732         0.150652
 H         2.491687         0.052293         2.102458
 H         2.680811         2.586224         1.960697
 H         4.114018         1.905832         1.157420
 H         2.391169         2.304454        -2.161245
 H         4.027898         1.947524        -1.714225
 H         2.454250        -0.147425        -2.015373
