19
Iteration:  4186charge 0 multiplicity 1
 C        -0.073188         0.399513         0.085013
 C         1.384149         0.070068        -0.085638
 O         1.873165        -1.303116         0.065978
 C         3.108155        -0.504890         0.180594
 C         2.473407         0.512808         1.113434
 C         3.024182         1.995240         1.080798
 O         2.805120         2.624316        -0.173435
 C         3.050588         1.785245        -1.274965
 C         2.519930         0.357174        -1.041925
 H        -0.394447         0.098697         1.191724
 H        -0.205226         1.471134         0.165127
 H        -0.844471        -0.091460        -0.691755
 H         3.943953        -1.143680         0.248019
 H         2.244056         0.250694         2.220254
 H         2.414761         2.645606         1.700840
 H         4.057793         2.039257         1.311164
 H         2.878295         2.412686        -2.157439
 H         4.160475         1.666165        -1.169640
 H         2.292998        -0.319958        -1.887805
