19
Iteration:  4016charge 0 multiplicity 1
 C        -0.053511         0.479091         0.058703
 C         1.405340         0.100865         0.015325
 O         1.929315        -1.260429         0.147665
 C         3.056597        -0.520940         0.108062
 C         2.530457         0.477656         1.079012
 C         2.928616         1.980081         1.061892
 O         2.717360         2.635009        -0.141069
 C         3.098492         1.705135        -1.283245
 C         2.541297         0.273538        -1.068695
 H        -0.455573         0.234800         1.046165
 H         0.040129         1.751484         0.122155
 H        -0.542666         0.161526        -0.859982
 H         4.062256        -1.026542        -0.111013
 H         2.468615         0.202034         2.061002
 H         2.255915         2.473583         1.760959
 H         4.040157         2.037784         1.619485
 H         2.653426         2.267233        -2.112687
 H         4.091462         1.661401        -1.393400
 H         2.197119        -0.154750        -1.984766
