19
Iteration:  1204
 C        -0.023603         0.455801        -0.108615
 C         1.402541         0.108060         0.001058
 O         1.842016        -1.267833         0.092769
 C         3.111864        -0.509628         0.021360
 C         2.648974         0.498921         1.069643
 C         3.030017         1.968744         1.195256
 O         2.783772         2.579963        -0.003788
 C         2.985531         1.788295        -1.180999
 C         2.439995         0.330778        -1.099590
 H        -0.400931         0.015112         0.828105
 H        -0.380160         1.653447        -0.295664
 H        -0.480656        -0.134974        -0.944993
 H         3.960095        -1.084120         0.000270
 H         2.447631        -0.103054         1.998070
 H         2.268143         2.493998         1.893933
 H         4.098198         1.970115         1.695938
 H         2.500452         2.392467        -1.973695
 H         4.020198         1.749113        -1.410669
 H         2.060436        -0.086574        -2.081915
