19
Iteration:  2041charge 0 multiplicity 1
 C        -0.148746         0.474716        -0.143355
 C         1.369212         0.160170         0.060210
 O         1.952906        -1.319985         0.105335
 C         3.171306        -0.568608         0.002806
 C         2.534150         0.458663         1.142287
 C         2.994442         1.974812         1.161040
 O         2.925865         2.679474        -0.067206
 C         2.924782         1.755416        -1.211289
 C         2.473515         0.347885        -1.021886
 H        -0.851434        -0.131339         0.470840
 H        -0.384201         1.456803        -0.026643
 H        -0.452936         0.000585        -1.097051
 H         4.068688        -1.101412        -0.169028
 H         2.375257        -0.081990         2.110850
 H         2.287314         2.427724         1.999380
 H         3.933968         2.169102         1.748429
 H         2.249962         2.280919        -1.968139
 H         3.835881         1.809838        -1.772507
 H         2.311904        -0.264637        -1.872270
