19
Iteration:  3830charge 0 multiplicity 1
 C        -0.000958         0.498567         0.005580
 C         1.401998         0.154524         0.020128
 O         1.819343        -1.339836         0.180161
 C         3.141926        -0.469736         0.049675
 C         2.588929         0.471249         1.100844
 C         2.924077         1.947990         1.086229
 O         2.693336         2.612571        -0.177538
 C         3.099309         1.744399        -1.259875
 C         2.518751         0.341118        -1.026996
 H        -0.421188        -0.017483         0.850174
 H        -0.317686         1.622492         0.192119
 H        -0.374355         0.188030        -0.940277
 H         4.067640        -1.102266         0.118565
 H         2.609712         0.101862         2.096274
 H         2.200947         2.441328         1.763426
 H         4.049855         2.143934         1.497585
 H         2.737949         2.243333        -2.185924
 H         4.119721         1.450861        -1.287907
 H         2.278284        -0.142967        -1.947041
