19
Iteration:  2440
 C        -0.112406         0.399987         0.022650
 C         1.387302         0.098660         0.001587
 O         1.921823        -1.285896         0.052912
 C         3.102938        -0.494910         0.015985
 C         2.512211         0.486980         1.102246
 C         2.942150         1.982311         1.212651
 O         2.866675         2.647384        -0.047555
 C         3.013748         1.744408        -1.221165
 C         2.539169         0.335791        -1.147830
 H        -0.628463         0.128811         0.931202
 H        -0.100681         1.545995        -0.187816
 H        -0.652860        -0.105328        -0.773908
 H         3.948578        -1.008245         0.172577
 H         2.371713        -0.011557         2.046295
 H         2.308615         2.577311         1.974770
 H         3.958730         2.202124         1.603768
 H         2.422180         2.208878        -2.121053
 H         4.037703         1.865268        -1.577871
 H         2.349985        -0.275643        -2.079961
