19
Iteration:  2730charge 0 multiplicity 1
 C         0.044966         0.377732        -0.022600
 C         1.415551         0.118388        -0.115844
 O         1.882474        -1.287640         0.088173
 C         3.109897        -0.464655         0.199024
 C         2.465789         0.494081         1.134702
 C         3.019282         1.913777         1.122988
 O         2.849269         2.670519        -0.083161
 C         2.866056         1.776617        -1.282948
 C         2.508263         0.323394        -1.061200
 H        -0.328160         0.055740         0.942339
 H        -0.060534         1.465254         0.027495
 H        -0.588085         0.064296        -0.825025
 H         3.991387        -0.923726         0.150869
 H         2.188468         0.173839         2.162532
 H         2.568554         2.421309         2.002729
 H         4.109438         1.815954         1.183199
 H         2.130421         2.252676        -2.051973
 H         3.936190         1.937692        -1.527808
 H         2.436133        -0.309424        -1.927854
