19
Iteration:    60
 C        -0.118301         0.497954         0.075333
 C         1.371942         0.039078         0.008610
 O         1.854967        -1.432844        -0.000376
 C         3.114194        -0.465966         0.075090
 C         2.497482         0.502727         1.035509
 C         2.997025         1.919484         1.077017
 O         2.820809         2.774562        -0.031251
 C         3.079388         1.810981        -1.194632
 C         2.521805         0.314539        -1.045054
 H        -0.523828         0.325755         1.102208
 H        -0.253610         1.619848        -0.042584
 H        -0.640417        -0.276531        -0.736858
 H         4.214433        -0.880824         0.115516
 H         2.175291         0.091969         2.147862
 H         2.642925         2.314531         2.065229
 H         4.117698         1.679088         1.102374
 H         2.567733         2.219929        -2.119580
 H         4.171373         1.736831        -1.470685
 H         2.398684        -0.170509        -2.133545
