19
Iteration:  4803
 C        -0.053923         0.363460        -0.080652
 C         1.415133         0.107659         0.014601
 O         1.785678        -1.286214         0.133946
 C         3.153686        -0.454970         0.142137
 C         2.550962         0.566641         1.139987
 C         3.115548         1.982265         1.128873
 O         2.797752         2.601079        -0.134144
 C         2.960517         1.766953        -1.293155
 C         2.485244         0.295055        -1.059372
 H        -0.535474        -0.157332         0.684921
 H        -0.398810         1.451300        -0.040241
 H        -0.606255         0.016338        -0.891217
 H         4.198395        -0.893643         0.179899
 H         2.156932         0.282691         2.071302
 H         2.586872         2.638092         1.823122
 H         4.282228         2.070444         1.527727
 H         2.282878         2.222196        -1.940097
 H         4.087384         1.825856        -1.630417
 H         2.332096        -0.468110        -1.783811
