19
Iteration:  3583charge 0 multiplicity 1
 C         0.037172         0.434997        -0.043128
 C         1.440699         0.113120         0.033217
 O         1.871137        -1.272187         0.178168
 C         3.136597        -0.515978         0.060861
 C         2.387395         0.519948         1.124358
 C         3.022180         1.986247         1.139878
 O         2.802166         2.583327        -0.185064
 C         2.934828         1.787081        -1.264280
 C         2.532769         0.329547        -1.016671
 H        -0.372316         0.039544         0.937640
 H        -0.279024         1.567680        -0.113715
 H        -0.549363        -0.078372        -0.831584
 H         4.081625        -1.183456         0.152817
 H         2.194658        -0.130914         2.026476
 H         2.778094         2.747102         1.879733
 H         4.164679         1.778013         1.202237
 H         2.258689         2.186965        -1.996530
 H         4.007696         1.946718        -1.725441
 H         2.289879        -0.158767        -1.922409
