19
Iteration:  3085
 C        -0.067292         0.336542        -0.032021
 C         1.428320         0.124298         0.055944
 O         1.843984        -1.277061         0.204621
 C         3.038763        -0.545682         0.074395
 C         2.575925         0.544614         1.080096
 C         3.017360         1.920430         1.087194
 O         2.750646         2.663206        -0.106649
 C         3.037198         1.802481        -1.253636
 C         2.539394         0.386533        -1.089975
 H        -0.640767        -0.266339         0.683669
 H        -0.296496         1.297841         0.115276
 H        -0.371037         0.082349        -1.060974
 H         4.046593        -1.098734         0.139262
 H         2.361547         0.255024         2.110781
 H         2.675009         2.600728         1.812938
 H         4.163725         1.828884         1.064438
 H         2.547354         2.319259        -2.116723
 H         4.097255         1.654574        -1.380008
 H         2.310435        -0.127899        -2.086605
