19
Iteration:  2596charge 0 multiplicity 1
 C        -0.061504         0.565184        -0.066976
 C         1.423093         0.146305         0.028177
 O         1.930121        -1.305163         0.112771
 C         3.198691        -0.560495         0.124771
 C         2.538944         0.463558         1.061214
 C         2.974748         1.920127         1.148311
 O         2.721656         2.558504        -0.038208
 C         2.961039         1.825905        -1.266866
 C         2.504056         0.318850        -1.123073
 H        -0.531147         0.267177         0.882496
 H        -0.065129         1.585154        -0.319085
 H        -0.584070         0.009703        -0.872743
 H         4.089472        -1.000400         0.063590
 H         2.329577         0.155475         2.128780
 H         2.417395         2.400001         2.069929
 H         4.082270         2.047799         1.346015
 H         2.131244         2.253584        -1.928663
 H         4.027137         1.950773        -1.492610
 H         2.454413        -0.328898        -2.028183
