19
Iteration:  1893charge 0 multiplicity 1
 C         0.085034         0.474491         0.039726
 C         1.459962         0.122806         0.021814
 O         1.878198        -1.360549         0.066688
 C         3.140152        -0.497504         0.140478
 C         2.376422         0.495968         1.055164
 C         2.994505         1.861650         1.128560
 O         2.786645         2.581923        -0.100847
 C         2.967347         1.897262        -1.321761
 C         2.475535         0.417299        -0.999080
 H        -0.522185        -0.087086         0.707532
 H        -0.063076         1.576510        -0.209908
 H        -0.359392         0.302206        -0.916043
 H         4.249764        -1.022176         0.470006
 H         1.972075        -0.006323         1.900616
 H         2.488710         2.336030         1.889020
 H         4.156353         1.783350         1.399186
 H         2.295239         2.227817        -2.042765
 H         4.022889         1.774683        -1.542653
 H         2.381337        -0.139911        -1.978441
