19
Iteration:  2239charge 0 multiplicity 1
 C        -0.079510         0.335668        -0.085872
 C         1.394437         0.137220         0.052554
 O         1.860441        -1.267853         0.129404
 C         3.103380        -0.452714         0.060561
 C         2.528309         0.495166         1.137858
 C         3.077123         1.895807         1.187986
 O         2.757430         2.602122        -0.085466
 C         3.121922         1.834515        -1.245310
 C         2.415263         0.379693        -1.145230
 H        -0.690627        -0.096260         0.839369
 H        -0.255895         1.399441        -0.067576
 H        -0.349222        -0.092162        -1.129498
 H         4.090425        -1.053861         0.194178
 H         2.281992        -0.063764         2.086426
 H         2.491074         2.523602         1.929920
 H         4.118569         1.951095         1.250301
 H         2.685387         2.535004        -2.043434
 H         4.196847         1.689444        -1.340592
 H         2.060359        -0.092355        -2.062555
