19
Iteration:  1775charge 0 multiplicity 1
 C         0.011364         0.400831         0.124823
 C         1.454643         0.168272         0.023608
 O         1.822629        -1.304346         0.075316
 C         3.101232        -0.506264         0.040199
 C         2.415469         0.450149         1.029933
 C         2.862871         1.895791         1.101951
 O         2.766342         2.608993        -0.105855
 C         3.172254         1.867658        -1.230652
 C         2.603480         0.381121        -1.110795
 H        -0.231682         0.257262         1.110571
 H        -0.259439         1.505257        -0.353476
 H        -0.790397        -0.112615        -0.358991
 H         4.055434        -1.014455         0.228897
 H         2.288228        -0.067482         1.990969
 H         2.332049         2.416550         1.976765
 H         3.950763         1.828484         1.412525
 H         2.479505         2.366491        -1.920724
 H         4.200066         1.847225        -1.491951
 H         2.343529        -0.240052        -1.952674
