19
Iteration:  3473charge 0 multiplicity 1
 C         0.057912         0.434264         0.046862
 C         1.513807         0.115935         0.033128
 O         1.757012        -1.350906         0.089888
 C         3.131476        -0.461117         0.160025
 C         2.445858         0.564593         1.151405
 C         2.935050         1.969868         1.069987
 O         2.751473         2.579310        -0.165172
 C         3.004866         1.779606        -1.317339
 C         2.553474         0.371747        -1.092414
 H        -0.273439        -0.098066         0.913231
 H        -0.022361         1.548380         0.353560
 H        -0.403983        -0.010688        -0.764443
 H         4.039046        -1.183722         0.285520
 H         2.273919         0.041348         2.116310
 H         2.663508         2.553427         1.910513
 H         4.053498         1.935353         1.361880
 H         2.572380         2.162927        -2.199527
 H         4.089788         1.723879        -1.454846
 H         2.401477        -0.074173        -2.034990
