19
Iteration:  1505charge 0 multiplicity 1
 C         0.040885         0.411278        -0.132904
 C         1.465069         0.100063         0.026313
 O         1.802046        -1.340584         0.101368
 C         3.088509        -0.515200         0.069877
 C         2.600429         0.474151         1.141787
 C         3.108445         1.963446         1.138077
 O         2.721387         2.655582        -0.055224
 C         2.927878         1.805559        -1.159900
 C         2.420871         0.429573        -1.075376
 H        -0.706829        -0.214073         0.467789
 H        -0.075540         1.392270         0.064397
 H        -0.135216         0.271044        -1.238838
 H         3.970055        -1.137998         0.121403
 H         2.240905        -0.151583         2.016310
 H         2.763003         2.555902         1.949879
 H         4.290112         1.884447         1.317550
 H         2.547167         2.341514        -2.062760
 H         4.012770         1.706616        -1.603164
 H         2.135233        -0.160576        -1.951168
