19
Iteration:  4604charge 0 multiplicity 1
 C        -0.058680         0.409762         0.043155
 C         1.369884         0.106760        -0.001829
 O         1.899667        -1.347541         0.142305
 C         3.088790        -0.430981         0.147304
 C         2.432318         0.508221         1.147142
 C         3.035297         1.935113         1.055387
 O         2.784113         2.628688        -0.138991
 C         3.042083         1.775065        -1.310730
 C         2.558952         0.327880        -1.092157
 H        -0.661987         0.051591         0.902755
 H        -0.260584         1.561331         0.255211
 H        -0.527700         0.143655        -0.944961
 H         4.145386        -0.754000         0.325159
 H         2.193739         0.035135         2.099428
 H         2.591688         2.633757         1.824063
 H         4.241767         1.858180         1.231078
 H         2.510705         2.251145        -2.129376
 H         4.107382         1.830998        -1.491618
 H         2.341937        -0.145416        -2.076893
