19
Iteration:  2428
 C        -0.108466         0.403309         0.013988
 C         1.355552         0.048254         0.011722
 O         1.848962        -1.376992         0.048072
 C         3.123547        -0.483324         0.140489
 C         2.502264         0.509034         1.054582
 C         3.029919         1.935756         1.165216
 O         2.803679         2.626276        -0.086835
 C         3.066185         1.913729        -1.290206
 C         2.575812         0.362774        -1.036077
 H        -0.571952         0.190175         0.988912
 H        -0.282188         1.534526        -0.214735
 H        -0.556487        -0.106014        -0.830075
 H         3.999283        -0.983986         0.101917
 H         2.355141         0.079811         2.032793
 H         2.269175         2.418060         1.866208
 H         4.102370         1.863978         1.514344
 H         2.260255         2.491002        -1.891098
 H         4.120240         1.904261        -1.692797
 H         2.573157        -0.107360        -2.064018
