19
Iteration:  2243charge 0 multiplicity 1
 C        -0.107267         0.296723        -0.078379
 C         1.367359         0.169323         0.061436
 O         1.880097        -1.259670         0.148753
 C         3.106381        -0.481256         0.023075
 C         2.529717         0.453828         1.158799
 C         3.079175         1.890390         1.156830
 O         2.753178         2.616090        -0.094413
 C         3.157023         1.840047        -1.250140
 C         2.427807         0.384495        -1.105124
 H        -0.654710        -0.087365         0.740972
 H        -0.153644         1.420965        -0.218095
 H        -0.504966         0.036860        -1.034202
 H         4.004188        -0.944489         0.093483
 H         2.194127        -0.006164         2.083170
 H         2.380438         2.490200         1.903063
 H         4.199473         2.052447         1.367958
 H         2.659232         2.516380        -2.033640
 H         4.277603         1.692187        -1.334359
 H         1.991339         0.033194        -2.123948
