19
Iteration:  1467
 C        -0.165758         0.459874         0.068934
 C         1.367315         0.118824        -0.050333
 O         1.928097        -1.279015         0.039031
 C         3.125604        -0.508208         0.169385
 C         2.488960         0.386306         1.109355
 C         2.999034         1.881016         1.154088
 O         2.789667         2.588440        -0.102683
 C         3.050441         1.850555        -1.296972
 C         2.603087         0.408767        -1.065410
 H        -0.641023         0.024414         0.895343
 H        -0.328150         1.677307         0.071777
 H        -0.663802         0.181771        -0.840545
 H         4.045238        -1.122775         0.109502
 H         2.264506        -0.070001         2.042684
 H         2.410393         2.520491         1.960105
 H         4.103214         1.941118         1.324291
 H         2.244077         2.303809        -1.963055
 H         4.105218         1.932828        -1.646967
 H         2.602749         0.041853        -2.096144
