19
Iteration:  2237charge 0 multiplicity 1
 C        -0.071126         0.349276        -0.086112
 C         1.408111         0.123816         0.047192
 O         1.851904        -1.272537         0.121425
 C         3.101810        -0.444631         0.074530
 C         2.524604         0.510255         1.125012
 C         3.061908         1.904555         1.198292
 O         2.761135         2.594152        -0.079249
 C         3.094900         1.832779        -1.244354
 C         2.415512         0.384384        -1.154601
 H        -0.656767        -0.077923         0.788198
 H        -0.315938         1.418444        -0.008483
 H        -0.288541        -0.135332        -1.095006
 H         4.102020        -1.077392         0.209251
 H         2.347256        -0.059300         2.066339
 H         2.601360         2.501344         1.913043
 H         4.167870         1.906604         1.242479
 H         2.744232         2.470259        -2.023510
 H         4.178115         1.696341        -1.352383
 H         2.126345        -0.160000        -2.024570
