19
Iteration:  1470
 C        -0.168970         0.455717         0.048883
 C         1.364391         0.129614        -0.051435
 O         1.952600        -1.258835         0.061216
 C         3.101819        -0.506627         0.159418
 C         2.503611         0.386838         1.104907
 C         3.003778         1.869873         1.148430
 O         2.784291         2.586682        -0.110707
 C         3.021729         1.855111        -1.289153
 C         2.627284         0.415509        -1.068781
 H        -0.731082         0.048776         0.869304
 H        -0.240368         1.570106         0.112309
 H        -0.686364         0.241719        -0.848414
 H         3.926918        -1.125399         0.115260
 H         2.227996        -0.168605         2.047736
 H         2.458609         2.507578         1.937125
 H         4.179946         1.857237         1.369130
 H         2.155931         2.285258        -1.889115
 H         4.149744         1.801107        -1.540410
 H         2.576731         0.014553        -2.102462
