19
Iteration:  2225
 C        -0.013443         0.402487        -0.055418
 C         1.415040         0.147641        -0.002772
 O         1.833687        -1.293870         0.089541
 C         3.097126        -0.442717         0.060669
 C         2.471455         0.519621         1.070913
 C         3.063677         1.944575         1.130402
 O         2.772861         2.582306        -0.030597
 C         2.956933         1.762338        -1.219556
 C         2.519311         0.385643        -1.041937
 H        -0.474317        -0.262701         0.692530
 H        -0.354051         1.475418        -0.185562
 H        -0.506216        -0.017272        -0.999620
 H         4.157722        -0.998687         0.038672
 H         2.433825         0.157339         2.109048
 H         2.786464         2.494897         1.924995
 H         4.149082         1.720341         1.413876
 H         2.562525         2.220767        -2.050881
 H         4.046878         1.692897        -1.337376
 H         2.612369        -0.178177        -1.946076
