19
Iteration:  4736charge 0 multiplicity 1
 C        -0.114900         0.385500         0.137028
 C         1.391770         0.244473         0.031683
 O         1.866973        -1.284095         0.059355
 C         3.133500        -0.542418         0.086180
 C         2.472670         0.549720         1.066226
 C         2.940145         2.028620         1.079281
 O         2.822943         2.583977        -0.168644
 C         3.115498         1.744236        -1.237770
 C         2.582373         0.256271        -1.047600
 H        -0.332759        -0.284767         0.963757
 H        -0.385841         1.477053         0.150425
 H        -0.662067         0.060369        -0.709882
 H         4.041290        -1.213889         0.087377
 H         2.139232         0.239534         2.031447
 H         2.160947         2.503671         1.735728
 H         3.879051         2.280771         1.523590
 H         2.443383         2.091214        -1.966472
 H         4.238469         1.750103        -1.494756
 H         2.438701        -0.147174        -2.049402
