19
Iteration:  1078charge 0 multiplicity 1
 C        -0.113471         0.529015         0.056670
 C         1.368028         0.029650         0.049637
 O         1.943930        -1.326641         0.032206
 C         3.082251        -0.512257        -0.043121
 C         2.567858         0.458176         1.056297
 C         2.910592         1.974513         1.181370
 O         2.809817         2.634778        -0.081214
 C         3.148265         1.770588        -1.178463
 C         2.441286         0.375466        -1.079997
 H        -0.758078         0.245451         1.001936
 H        -0.108158         1.525301        -0.258161
 H        -0.591151        -0.048093        -0.809295
 H         4.067231        -1.125924        -0.099543
 H         2.467007         0.002383         2.003437
 H         2.135198         2.393379         1.877773
 H         3.849852         2.279986         1.736898
 H         2.739831         2.383692        -1.940481
 H         4.167458         1.603886        -1.331925
 H         2.363204        -0.142642        -2.000172
