19
Iteration:   710
 C        -0.005837         0.410337         0.134006
 C         1.461535         0.125635        -0.054384
 O         1.812816        -1.265570         0.013827
 C         3.080581        -0.540714         0.046922
 C         2.438228         0.432549         1.100892
 C         2.949882         1.884919         1.159390
 O         2.703436         2.668341        -0.130036
 C         3.102540         1.845325        -1.212910
 C         2.632120         0.373988        -1.068290
 H        -0.257901         0.091344         1.225705
 H        -0.175722         1.426179         0.013156
 H        -0.678639        -0.144744        -0.649050
 H         3.958593        -1.069997         0.116725
 H         2.143663         0.068710         2.043073
 H         2.702601         2.572020         1.945898
 H         4.081296         1.758517         1.286672
 H         2.724801         2.188551        -2.219573
 H         4.189576         1.941000        -1.269080
 H         2.384419        -0.106802        -1.999859
