19
Iteration:  1545
 C        -0.034864         0.419333        -0.028101
 C         1.421523         0.168369        -0.029573
 O         1.859603        -1.280759         0.090329
 C         3.128667        -0.484181         0.063636
 C         2.479646         0.456280         1.133941
 C         3.076811         1.878153         1.172683
 O         2.702244         2.551294        -0.081094
 C         3.001143         1.835782        -1.234118
 C         2.541689         0.388549        -1.122377
 H        -0.549675         0.130499         0.878922
 H        -0.167329         1.646062         0.014345
 H        -0.551354        -0.033380        -0.852617
 H         4.113003        -0.933962         0.246982
 H         2.247632        -0.017948         2.096197
 H         2.619466         2.473425         2.079543
 H         4.119998         1.962199         1.386724
 H         2.523058         2.381722        -2.122820
 H         4.057980         1.718276        -1.312282
 H         2.465636        -0.055103        -2.130652
