19
Iteration:  3309
 C        -0.072151         0.374501        -0.017249
 C         1.404115         0.116510         0.123564
 O         1.818641        -1.329464         0.237400
 C         3.092391        -0.499086         0.020957
 C         2.555876         0.502609         1.037318
 C         2.948495         1.896918         1.140004
 O         2.830084         2.667057        -0.135631
 C         3.093776         1.817740        -1.311187
 C         2.502020         0.380783        -1.085474
 H        -0.701635         0.174496         0.810445
 H        -0.264989         1.495215        -0.191782
 H        -0.450864        -0.202320        -0.800747
 H         4.219192        -0.871508        -0.008173
 H         2.486079         0.038052         2.035320
 H         2.242739         2.405170         1.805610
 H         4.024038         2.132802         1.577596
 H         2.453034         2.144470        -2.096214
 H         4.169408         1.848007        -1.718940
 H         2.395942        -0.095396        -2.023748
