19
Iteration:  3204
 C        -0.077085         0.465016        -0.001585
 C         1.434516         0.106889         0.057205
 O         1.905594        -1.283344         0.162040
 C         3.107079        -0.480796         0.080708
 C         2.598087         0.492353         1.121169
 C         2.999946         1.939724         1.083919
 O         2.687307         2.540758        -0.154435
 C         3.096649         1.778933        -1.310703
 C         2.447791         0.405030        -1.011210
 H        -0.832734         0.228197         0.809961
 H        -0.147315         1.616802        -0.237988
 H        -0.517742         0.066505        -0.988131
 H         4.019609        -1.045550         0.118209
 H         2.433404        -0.039485         2.043566
 H         2.362747         2.340764         1.962904
 H         4.097231         2.017722         1.357425
 H         2.627528         2.320739        -2.238715
 H         4.214855         1.700402        -1.364158
 H         2.218837        -0.260636        -1.908489
