19
Iteration:   546charge 0 multiplicity 1
 C        -0.020830         0.470421         0.056973
 C         1.415586         0.199448         0.082258
 O         1.818271        -1.294504         0.085730
 C         3.162141        -0.548154        -0.031233
 C         2.570325         0.426300         1.072218
 C         2.909634         1.966328         1.188888
 O         2.741392         2.586828        -0.084751
 C         3.127682         1.795099        -1.245925
 C         2.442646         0.375930        -1.128491
 H        -0.431329         0.161072         1.032999
 H        -0.156285         1.514976        -0.248229
 H        -0.392766        -0.279046        -0.768743
 H         4.163594        -0.965573        -0.179334
 H         2.400959        -0.083985         2.019769
 H         2.227437         2.446945         1.914206
 H         3.868916         2.066294         1.718799
 H         2.829997         2.284174        -2.130138
 H         4.247432         1.723128        -1.335223
 H         2.243678        -0.217156        -2.068643
