19
Iteration:  1975charge 0 multiplicity 1
 C        -0.127768         0.444503         0.028215
 C         1.380952         0.133047        -0.018612
 O         1.887569        -1.359666        -0.004185
 C         3.122793        -0.496091         0.137713
 C         2.474757         0.479237         1.116183
 C         3.051064         1.933267         1.074327
 O         2.749088         2.621869        -0.075604
 C         3.064552         1.840867        -1.211127
 C         2.571225         0.353266        -1.055516
 H        -0.636569         0.298265         1.010341
 H        -0.381195         1.432301        -0.070724
 H        -0.579160        -0.271411        -0.700913
 H         3.975205        -1.008322         0.206428
 H         2.273121         0.140319         2.173812
 H         2.492516         2.536788         1.931753
 H         4.098927         1.942013         1.324345
 H         2.671414         2.361307        -2.141716
 H         4.140575         1.833809        -1.415328
 H         2.554118        -0.168588        -1.991976
