19
Iteration:  1268charge 0 multiplicity 1
 C        -0.007527         0.398413         0.090522
 C         1.474025         0.191331        -0.055252
 O         1.844254        -1.249185         0.018293
 C         3.045121        -0.490369         0.041225
 C         2.442573         0.472175         1.059973
 C         2.955933         1.936358         1.193763
 O         2.745480         2.594593        -0.085130
 C         3.109997         1.747607        -1.189005
 C         2.579927         0.374180        -1.121591
 H        -0.232124         0.023311         1.104838
 H        -0.338395         1.384464         0.026121
 H        -0.616121        -0.238012        -0.590027
 H         3.884629        -1.188826         0.029367
 H         2.151365         0.066548         2.040599
 H         2.590772         2.615559         2.053234
 H         4.008410         1.962417         1.348869
 H         2.573058         2.275568        -2.004305
 H         4.288142         1.803816        -1.234673
 H         2.299583        -0.233203        -2.039374
