19
Iteration:  2859
 C        -0.013632         0.413670         0.094308
 C         1.391541         0.134367        -0.029565
 O         1.859904        -1.354057         0.119920
 C         3.159418        -0.519274         0.090308
 C         2.489571         0.449051         1.115381
 C         2.915519         1.924620         1.087091
 O         2.846444         2.665812        -0.136678
 C         3.015563         1.812352        -1.282349
 C         2.487502         0.399312        -1.082301
 H        -0.548911        -0.137335         0.892103
 H        -0.112331         1.428890         0.182789
 H        -0.566684         0.143291        -0.825535
 H         4.183052        -0.898170         0.211990
 H         2.271116         0.177193         2.147772
 H         2.309414         2.424896         1.915870
 H         3.905306         2.125609         1.458607
 H         2.549390         2.257997        -2.198421
 H         4.133782         1.787347        -1.529376
 H         2.475979        -0.118024        -1.997172
