19
Iteration:  3227charge 0 multiplicity 1
 C        -0.005580         0.488920        -0.020915
 C         1.482936         0.154491         0.066581
 O         1.820579        -1.317678         0.119343
 C         3.076168        -0.504410         0.028837
 C         2.527523         0.511412         1.124562
 C         3.048534         2.058489         1.066242
 O         2.687552         2.613489        -0.131682
 C         3.002072         1.713299        -1.172224
 C         2.548722         0.269317        -1.086419
 H        -0.384114        -0.258331         0.775995
 H        -0.428987         1.473193         0.171144
 H        -0.489945         0.089302        -0.993105
 H         4.042096        -0.995407         0.226958
 H         2.416855        -0.058321         2.050881
 H         2.565742         2.621409         1.948799
 H         4.162428         2.019571         1.236446
 H         2.499976         2.228736        -2.088164
 H         4.121302         1.755999        -1.268048
 H         2.442114        -0.353926        -2.036756
