19
Iteration:  1063
 C        -0.087489         0.457527         0.066345
 C         1.408137         0.144123        -0.001647
 O         1.880545        -1.363966         0.062658
 C         3.176020        -0.473281         0.017192
 C         2.460545         0.429999         1.071882
 C         2.872249         1.889324         1.159640
 O         2.846352         2.639372        -0.083006
 C         3.080553         1.816652        -1.238042
 C         2.512634         0.400544        -1.099828
 H        -0.333863         0.312677         1.043770
 H        -0.114939         1.593031        -0.107188
 H        -0.773176         0.027794        -0.575658
 H         4.191223        -0.909383         0.004111
 H         2.305636        -0.009538         2.100498
 H         2.274337         2.412953         1.926543
 H         3.873146         1.870151         1.587581
 H         2.744110         2.204018        -2.235004
 H         4.148398         1.702025        -1.154735
 H         2.231140        -0.040285        -2.067783
