19
Iteration:  4017
 C        -0.049567         0.482773         0.051168
 C         1.398648         0.092866         0.022097
 O         1.927003        -1.262865         0.154032
 C         3.061156        -0.531595         0.093249
 C         2.528644         0.472278         1.068637
 C         2.933768         1.997597         1.066578
 O         2.713808         2.640060        -0.141987
 C         3.093194         1.705439        -1.273977
 C         2.541536         0.280494        -1.064042
 H        -0.443501         0.244231         1.071953
 H         0.064161         1.744232         0.149943
 H        -0.538455         0.129511        -0.895275
 H         4.046659        -1.028983        -0.107067
 H         2.470993         0.203461         2.093228
 H         2.231620         2.462859         1.722737
 H         4.068160         2.025742         1.607032
 H         2.672584         2.260695        -2.117440
 H         4.128820         1.619658        -1.381808
 H         2.201783        -0.147112        -1.994354
