19
Iteration:  1334
 C        -0.000870         0.498896        -0.088749
 C         1.416171         0.135955        -0.001272
 O         1.883561        -1.331773         0.108107
 C         3.093255        -0.405167         0.095558
 C         2.498830         0.466602         1.151732
 C         3.053088         1.832408         1.141073
 O         2.781390         2.578562        -0.058085
 C         2.942865         1.841774        -1.279009
 C         2.489547         0.364991        -1.071842
 H        -0.566513        -0.098310         0.613369
 H        -0.071179         1.503531         0.164830
 H        -0.355801         0.224953        -1.082366
 H         4.049741        -0.978708         0.223680
 H         2.236843        -0.081769         2.060308
 H         2.636609         2.398196         2.060597
 H         4.151505         1.818692         1.326149
 H         2.196751         2.299434        -1.941144
 H         3.972188         1.826584        -1.613569
 H         2.442198        -0.135833        -2.072461
