19
Iteration:   106
 C        -0.026210         0.445112        -0.081005
 C         1.472744         0.237686         0.047880
 O         1.779761        -1.217758         0.117126
 C         3.154845        -0.514313         0.018653
 C         2.549157         0.391668         1.132981
 C         3.054572         1.878444         1.168773
 O         2.735138         2.607454        -0.061665
 C         2.955663         1.818414        -1.283468
 C         2.523431         0.336056        -1.071606
 H        -0.454289        -0.252881         0.725331
 H        -0.340975         1.589109         0.121776
 H        -0.259600         0.092541        -1.065246
 H         4.027033        -1.058634         0.008609
 H         2.532194        -0.011284         2.135421
 H         2.493164         2.321466         1.955324
 H         4.129179         1.773074         1.450362
 H         2.367222         2.205957        -2.062794
 H         4.046102         1.877192        -1.583016
 H         2.254412        -0.331419        -1.850609
