19
Iteration:   323charge 0 multiplicity 1
 C        -0.129264         0.473481        -0.043259
 C         1.418510         0.101714         0.065976
 O         1.899568        -1.305135         0.127730
 C         3.134358        -0.433499         0.013457
 C         2.463929         0.431492         1.101922
 C         3.069342         1.903306         1.102526
 O         2.756278         2.526545        -0.057837
 C         3.036955         1.847516        -1.227393
 C         2.463614         0.425767        -1.075040
 H        -0.740897        -0.024719         0.725809
 H        -0.092873         1.557598         0.098899
 H        -0.394747         0.230201        -0.934248
 H         4.064668        -0.946657        -0.057351
 H         2.417158        -0.095607         2.047181
 H         2.834728         2.571341         1.867991
 H         4.152760         1.652944         1.227689
 H         2.614277         2.370682        -2.095990
 H         4.126171         1.719188        -1.339935
 H         2.277973        -0.025957        -2.005240
