19
Iteration:  3853
 C        -0.128675         0.515862         0.093201
 C         1.402509         0.117495         0.061077
 O         1.933008        -1.282239         0.102678
 C         3.133205        -0.498507         0.054969
 C         2.522622         0.498101         1.136517
 C         2.898578         1.980220         1.131294
 O         2.710300         2.548917        -0.195548
 C         3.131604         1.750043        -1.246020
 C         2.574039         0.266711        -1.118062
 H        -0.756506         0.407525         0.952912
 H         0.080421         1.676717         0.025625
 H        -0.506210         0.276081        -0.841454
 H         4.042308        -1.103299         0.165871
 H         2.285042         0.029613         2.089956
 H         2.259593         2.665135         1.766658
 H         4.077482         2.100657         1.449099
 H         2.526948         2.165782        -2.051898
 H         4.152712         1.722798        -1.478002
 H         2.385593        -0.222393        -2.043128
