19
Iteration:   740charge 0 multiplicity 1
 C        -0.151885         0.482846         0.115657
 C         1.417945         0.117295        -0.027218
 O         1.909661        -1.328327         0.004372
 C         3.110287        -0.461618         0.036683
 C         2.514146         0.461000         1.072010
 C         2.954002         1.904229         1.182304
 O         2.721843         2.576643        -0.110574
 C         3.142032         1.854746        -1.216721
 C         2.532870         0.348448        -1.070852
 H        -0.489356         0.307603         1.118384
 H        -0.160348         1.571764        -0.232514
 H        -0.678157        -0.107558        -0.554015
 H         4.144051        -0.882567         0.110925
 H         2.355483         0.034002         2.149125
 H         2.533928         2.492728         2.034992
 H         4.031089         1.796191         1.322925
 H         2.716793         2.172586        -2.244992
 H         4.248442         1.858898        -1.201259
 H         2.205436        -0.151337        -2.004723
