19
Iteration:  3340
 C        -0.017770         0.358643         0.044596
 C         1.441297         0.120240        -0.012220
 O         1.858587        -1.317879         0.099034
 C         3.065623        -0.497171         0.078712
 C         2.506026         0.561260         1.128244
 C         2.980108         1.970781         1.213872
 O         2.823133         2.609026        -0.155359
 C         3.062665         1.746919        -1.292323
 C         2.427798         0.404939        -1.072490
 H        -0.360010         0.464270         1.096300
 H        -0.252213         1.356265        -0.468865
 H        -0.569787        -0.420236        -0.509479
 H         4.199670        -0.917240         0.154757
 H         2.249709         0.074117         2.112846
 H         2.402888         2.646182         1.842964
 H         3.929299         2.019978         1.344745
 H         2.569274         2.132005        -2.189025
 H         4.128422         1.576908        -1.585123
 H         2.452281        -0.027278        -2.050624
