19
Iteration:  1105
 C         0.028170         0.452548         0.000703
 C         1.466529         0.146676         0.039444
 O         1.822038        -1.248487         0.101145
 C         3.152788        -0.508680        -0.031870
 C         2.501634         0.421050         1.088866
 C         2.967182         1.877186         1.155620
 O         2.746218         2.620249        -0.084910
 C         3.092196         1.815658        -1.221688
 C         2.428454         0.402979        -1.055960
 H        -0.421350        -0.125145         0.841781
 H        -0.268185         1.577265        -0.185592
 H        -0.335228        -0.092356        -0.926548
 H         3.953906        -1.186939        -0.088126
 H         2.320832        -0.107841         2.093853
 H         2.262561         2.366163         1.942185
 H         3.897020         2.103964         1.692344
 H         2.610223         2.457616        -2.033399
 H         4.289725         1.539887        -1.370771
 H         2.201007        -0.213820        -2.019163
