19
Iteration:  3261
 C        -0.117490         0.470633         0.041706
 C         1.366031         0.116451         0.025457
 O         1.878555        -1.318255         0.153423
 C         3.140396        -0.450955         0.141928
 C         2.446694         0.467444         1.153821
 C         3.013133         1.886867         1.029547
 O         2.749193         2.580709        -0.146987
 C         3.037755         1.868068        -1.316160
 C         2.647689         0.362268        -1.067924
 H        -0.704034        -0.224745         0.758355
 H        -0.285421         1.463964         0.325161
 H        -0.663338         0.239873        -0.982930
 H         4.054451        -1.127618         0.337329
 H         2.337621        -0.049433         2.125402
 H         2.770424         2.609185         1.869408
 H         4.124514         1.903696         1.094080
 H         2.432399         2.225712        -2.227823
 H         4.129976         1.951589        -1.590593
 H         2.593884        -0.289133        -2.002653
