19
Iteration:   937
 C         0.102044         0.484927         0.075961
 C         1.505518         0.159263        -0.009860
 O         1.805647        -1.326661        -0.003824
 C         3.073545        -0.527191         0.078960
 C         2.399321         0.444229         1.152894
 C         2.960825         1.885655         1.151893
 O         2.737246         2.631381        -0.098635
 C         2.974719         1.857852        -1.291442
 C         2.623881         0.345154        -1.055434
 H        -0.310132         0.201156         1.146747
 H         0.047528         1.562099        -0.049488
 H        -0.527914        -0.109565        -0.600537
 H         4.005446        -0.940061         0.209034
 H         2.093184         0.065996         2.077623
 H         2.409965         2.390360         1.921640
 H         4.054394         1.897935         1.349049
 H         2.557732         2.136794        -2.155070
 H         4.040561         1.823147        -1.601997
 H         2.507773        -0.150979        -1.989950
