19
Iteration:  4363
 C        -0.061914         0.392122         0.072247
 C         1.406364         0.177964         0.031580
 O         1.903512        -1.338842         0.147244
 C         3.111786        -0.439706         0.064203
 C         2.497834         0.566483         1.088382
 C         2.915349         1.972580         1.105888
 O         2.856655         2.581425        -0.138800
 C         3.091333         1.705726        -1.268457
 C         2.415922         0.400087        -1.114132
 H        -0.356549        -0.129058         0.970779
 H        -0.428688         1.435375        -0.131946
 H        -0.459539        -0.084598        -0.792173
 H         4.135169        -0.895982        -0.077469
 H         2.196406        -0.030305         1.986530
 H         2.460417         2.527084         1.859269
 H         3.969341         2.032526         1.622607
 H         2.852443         2.332635        -2.115772
 H         4.085021         1.333131        -1.292759
 H         2.111721        -0.151484        -2.013638
