19
Iteration:  3837
 C        -0.067198         0.560248         0.014794
 C         1.409728         0.104743         0.083772
 O         1.824064        -1.345784         0.151203
 C         3.179770        -0.488655         0.059510
 C         2.574282         0.502821         1.062657
 C         2.934979         1.987766         1.103958
 O         2.697232         2.575641        -0.137734
 C         3.087776         1.697708        -1.307664
 C         2.549129         0.361117        -1.042268
 H        -0.598131        -0.034762         0.819833
 H        -0.302293         1.603052         0.123792
 H        -0.659531         0.139322        -0.889865
 H         4.181346        -0.990309         0.018899
 H         2.618474         0.166228         2.117741
 H         2.166971         2.348155         1.742254
 H         3.955988         2.196249         1.490672
 H         2.863970         2.281408        -2.228630
 H         4.309237         1.766038        -1.276781
 H         2.344379        -0.314132        -1.923249
