19
Iteration:  3978
 C        -0.019098         0.390869         0.040780
 C         1.430558         0.121230        -0.022405
 O         1.837576        -1.280255         0.107238
 C         3.095991        -0.487344         0.157399
 C         2.456456         0.561440         1.152651
 C         3.005352         1.946848         1.089307
 O         2.827300         2.624527        -0.152846
 C         3.004424         1.765750        -1.303673
 C         2.552750         0.333267        -1.056078
 H        -0.512730         0.052930         0.970878
 H        -0.093164         1.412821         0.014204
 H        -0.581634        -0.080543        -0.799095
 H         4.025097        -1.059296         0.169998
 H         2.221415         0.102269         2.204646
 H         2.380498         2.577866         1.849376
 H         4.104359         1.880636         1.248038
 H         2.299461         2.070092        -2.086267
 H         4.046320         1.910058        -1.725450
 H         2.404142        -0.405316        -1.905603
