19
Iteration:  2429charge 0 multiplicity 1
 C        -0.112127         0.403624         0.021740
 C         1.352939         0.049719         0.013479
 O         1.856852        -1.370215         0.045507
 C         3.119747        -0.482125         0.136165
 C         2.506224         0.509133         1.053571
 C         3.026794         1.940304         1.172201
 O         2.807844         2.628237        -0.084030
 C         3.071923         1.901339        -1.288438
 C         2.573523         0.354338        -1.045553
 H        -0.570096         0.155257         0.966853
 H        -0.253997         1.540886        -0.263818
 H        -0.573924        -0.086239        -0.832092
 H         3.967501        -0.989045         0.106458
 H         2.365639         0.062346         2.021661
 H         2.245322         2.441498         1.899994
 H         4.083267         1.911841         1.514427
 H         2.237682         2.487950        -1.885475
 H         4.084458         1.896054        -1.677839
 H         2.560746        -0.117529        -2.083647
