19
Iteration:  2222
 C        -0.021296         0.395827        -0.055722
 C         1.402406         0.166464        -0.022084
 O         1.838160        -1.295917         0.081797
 C         3.111089        -0.456662         0.049560
 C         2.460055         0.514286         1.080320
 C         3.076891         1.930292         1.103951
 O         2.771620         2.597747        -0.031715
 C         2.943122         1.747950        -1.205254
 C         2.557905         0.367480        -0.992400
 H        -0.404188        -0.176431         0.704536
 H        -0.290509         1.476530        -0.173548
 H        -0.520262         0.097803        -0.938420
 H         4.059919        -0.905150         0.000942
 H         2.324815         0.193371         2.100115
 H         2.658038         2.544521         1.961773
 H         4.215580         1.721292         1.381301
 H         2.362618         2.208084        -2.029124
 H         4.055899         1.708900        -1.374508
 H         2.661886        -0.133832        -2.024278
