19
Iteration:  1016
 C        -0.138239         0.413127        -0.048421
 C         1.373104         0.157479         0.002277
 O         1.840881        -1.302723         0.045486
 C         3.099564        -0.484190         0.105633
 C         2.534426         0.435026         1.121090
 C         3.095883         1.910567         1.104358
 O         2.774013         2.652223        -0.065091
 C         3.048150         1.855156        -1.221339
 C         2.542490         0.378274        -1.014246
 H        -0.556836        -0.205116         0.795187
 H        -0.542641         1.398878        -0.077383
 H        -0.438072        -0.017827        -1.076214
 H         3.970012        -1.096263         0.118738
 H         2.402434        -0.076692         2.111742
 H         2.737199         2.442002         2.021385
 H         4.184599         1.871085         1.276596
 H         2.203420         2.093562        -1.937118
 H         4.173001         1.761948        -1.567174
 H         2.609151        -0.190808        -2.034922
