19
Iteration:  3089charge 0 multiplicity 1
 C        -0.106151         0.316086        -0.047830
 C         1.424873         0.130927         0.056432
 O         1.848111        -1.281792         0.226841
 C         3.071717        -0.543926         0.030961
 C         2.521739         0.534541         1.094475
 C         3.066379         1.922550         1.084980
 O         2.750944         2.698625        -0.122673
 C         3.039534         1.790244        -1.212393
 C         2.545697         0.362151        -1.112055
 H        -0.702117        -0.283662         0.699126
 H        -0.283522         1.493055         0.090700
 H        -0.465579         0.057352        -1.091039
 H         4.062787        -1.116290         0.116361
 H         2.461269         0.049382         2.122949
 H         2.691995         2.677763         1.824041
 H         4.220835         2.007622         1.205090
 H         2.537356         2.232372        -2.031651
 H         4.174269         1.746518        -1.417429
 H         2.196185        -0.130569        -2.007632
