19
Iteration:  2193charge 0 multiplicity 1
 C         0.010982         0.506109        -0.042294
 C         1.420370         0.103047        -0.001787
 O         1.875977        -1.370442         0.068818
 C         3.114109        -0.597722         0.231805
 C         2.449397         0.440686         1.140284
 C         3.021659         1.875716         1.125348
 O         2.775672         2.630010        -0.028623
 C         2.882154         1.939966        -1.428002
 C         2.601203         0.405806        -1.091110
 H        -0.564187         0.089378         0.895303
 H        -0.096727         1.676685         0.037873
 H        -0.407233         0.122247        -1.066671
 H         4.107738        -1.268509         0.534425
 H         2.307711         0.117220         2.198977
 H         2.563155         2.478718         1.823787
 H         4.051880         1.712785         1.312931
 H         2.228008         2.509599        -2.072844
 H         3.944924         1.993529        -1.626774
 H         2.684938        -0.120726        -1.983750
