19
Iteration:  3562charge 0 multiplicity 1
 C        -0.083132         0.385155         0.021316
 C         1.376157         0.200825         0.008345
 O         1.852381        -1.317298         0.100494
 C         3.113889        -0.454142         0.222694
 C         2.558601         0.482793         1.105194
 C         3.062890         1.935606         1.089648
 O         2.802563         2.609221        -0.113043
 C         2.967261         1.759107        -1.346018
 C         2.561006         0.339515        -1.083641
 H        -0.669670         0.322641         0.968939
 H        -0.338118         1.446480        -0.394682
 H        -0.618174        -0.223829        -0.733341
 H         4.122708        -1.089591         0.301214
 H         2.260529         0.221778         2.143091
 H         2.444447         2.388703         1.823418
 H         4.079920         2.104911         1.511559
 H         2.291365         2.267140        -2.008017
 H         4.028241         1.945013        -1.779676
 H         2.489849        -0.290963        -1.934604
