19
Iteration:  3447charge 0 multiplicity 1
 C        -0.138491         0.550864         0.001930
 C         1.403931         0.087828         0.023219
 O         1.951156        -1.331431         0.178103
 C         3.137844        -0.526339         0.142794
 C         2.462408         0.536573         1.055734
 C         3.059545         1.927582         1.100173
 O         2.709557         2.607531        -0.139634
 C         2.983681         1.769170        -1.293838
 C         2.601527         0.310189        -1.083711
 H        -0.785951         0.006966         0.730251
 H        -0.012520         1.572932         0.338783
 H        -0.567271         0.404366        -1.030290
 H         4.006527        -1.025474         0.389350
 H         2.376750         0.000997         2.025914
 H         2.605217         2.479904         1.972060
 H         4.040817         1.992142         1.362461
 H         2.379900         2.079554        -2.196511
 H         4.091597         1.855847        -1.540943
 H         2.415328        -0.107293        -2.114127
