19
Iteration:   246
 C        -0.105840         0.496971        -0.052764
 C         1.398863         0.145926         0.076007
 O         1.941737        -1.319329         0.065072
 C         3.143101        -0.423069        -0.032016
 C         2.557877         0.521544         1.081061
 C         2.988962         1.902063         1.168867
 O         2.835192         2.542264        -0.050674
 C         3.018682         1.713431        -1.150346
 C         2.371215         0.374698        -1.083755
 H        -0.602123         0.150937         0.884787
 H        -0.230387         1.542129        -0.234716
 H        -0.552061         0.027628        -0.902284
 H         4.112167        -0.971039        -0.071310
 H         2.298996         0.131409         2.077839
 H         2.437283         2.541171         1.854111
 H         4.060312         1.929918         1.485552
 H         2.553433         2.279769        -1.999734
 H         4.133634         1.578462        -1.410992
 H         2.133861        -0.008558        -2.088155
