19
Iteration:   891charge 0 multiplicity 1
 C        -0.049340         0.464333         0.053282
 C         1.404620         0.156861         0.053745
 O         1.897844        -1.305572         0.096525
 C         3.111490        -0.471360        -0.023829
 C         2.567428         0.447606         1.022300
 C         2.918828         1.961687         1.169669
 O         2.708177         2.571883        -0.093747
 C         3.187705         1.759077        -1.175268
 C         2.447039         0.406746        -1.106571
 H        -0.628206         0.163184         0.947400
 H        -0.232885         1.631537        -0.122072
 H        -0.511954        -0.132015        -0.707015
 H         4.081990        -1.032813        -0.281408
 H         2.447572        -0.030776         2.011461
 H         2.241229         2.408368         1.924413
 H         3.964082         1.884060         1.512542
 H         2.873712         2.291138        -1.984527
 H         4.244831         1.504028        -1.359582
 H         2.016735        -0.094610        -1.998104
