19
Iteration:  4612
 C        -0.099719         0.448245         0.012242
 C         1.404162         0.147551         0.013302
 O         1.959796        -1.354265         0.140740
 C         3.083605        -0.514826         0.183114
 C         2.404805         0.519023         1.112515
 C         3.095201         1.951072         1.039368
 O         2.755821         2.610183        -0.156060
 C         3.012258         1.794766        -1.240806
 C         2.532006         0.376332        -1.118005
 H        -0.637449        -0.095784         0.864427
 H        -0.034560         1.540492         0.133556
 H        -0.702566         0.034886        -0.866037
 H         3.916883        -1.110140         0.465332
 H         2.296187         0.116830         2.148295
 H         2.584672         2.632578         1.906641
 H         4.189573         1.857742         1.335169
 H         2.531901         2.257999        -2.124941
 H         4.045162         1.825302        -1.707429
 H         2.420037        -0.269616        -2.024735
