19
Iteration:   281
 C        -0.058863         0.401281         0.017991
 C         1.406777         0.135046        -0.009123
 O         1.764923        -1.272014         0.058310
 C         3.144224        -0.629195         0.092545
 C         2.461885         0.483612         1.144308
 C         3.044959         1.882349         1.081059
 O         2.802008         2.666571        -0.079103
 C         2.993996         1.895742        -1.233394
 C         2.678231         0.373698        -1.066009
 H        -0.570761        -0.222492         0.804055
 H        -0.449561         1.514860         0.224176
 H        -0.529013         0.070554        -0.815376
 H         3.976309        -1.243170         0.089380
 H         2.171518         0.160881         2.138805
 H         2.764950         2.421764         1.932263
 H         4.148590         1.750164         1.172769
 H         2.137218         2.166682        -1.797664
 H         3.972273         2.155059        -1.802258
 H         2.501814        -0.044189        -2.034615
