19
Iteration:  2127charge 0 multiplicity 1
 C        -0.014869         0.391360        -0.026084
 C         1.479324         0.149411         0.089092
 O         1.819100        -1.267006         0.138113
 C         3.115045        -0.527405        -0.002192
 C         2.468492         0.440939         1.078498
 C         2.924603         1.901335         1.098187
 O         2.702110         2.642168        -0.095978
 C         3.133703         1.789225        -1.198392
 C         2.512002         0.456032        -1.076109
 H        -0.448831         0.035882         0.946299
 H        -0.258495         1.480210        -0.313637
 H        -0.538674        -0.149584        -0.882732
 H         4.142490        -1.167677         0.034389
 H         2.614400        -0.088960         2.020475
 H         2.552389         2.418773         1.971978
 H         4.034416         1.828494         1.161836
 H         2.833724         2.345097        -2.080586
 H         4.242375         1.590235        -1.164397
 H         2.305745         0.050058        -2.013840
