19
Iteration:  2065charge 0 multiplicity 1
 C         0.006027         0.368186        -0.019069
 C         1.364681         0.082390        -0.000957
 O         1.860650        -1.315190         0.109752
 C         3.103331        -0.430344         0.071336
 C         2.458671         0.495095         1.064961
 C         2.979218         1.912555         1.142812
 O         2.879295         2.615058        -0.050267
 C         3.049533         1.791068        -1.263278
 C         2.475487         0.437748        -1.092477
 H        -0.683692        -0.085645         0.737019
 H        -0.046512         1.419521         0.135365
 H        -0.440922        -0.054694        -0.922439
 H         4.008031        -0.814720         0.263130
 H         2.298111        -0.027872         2.052750
 H         2.380058         2.514751         1.990648
 H         3.931055         1.903909         1.693349
 H         2.438286         2.359874        -2.061695
 H         4.019576         1.834640        -1.743953
 H         2.264509        -0.177011        -2.028737
