19
Iteration:  3495
 C        -0.204553         0.399864         0.065919
 C         1.411753         0.191355         0.056903
 O         1.890617        -1.254278         0.115520
 C         3.099335        -0.523078         0.084710
 C         2.585908         0.483576         1.102092
 C         2.967582         1.951175         1.058661
 O         2.744525         2.615203        -0.169460
 C         3.129989         1.784183        -1.271660
 C         2.563623         0.318255        -1.032198
 H        -0.671176         0.144874         1.006303
 H        -0.281908         1.528830        -0.028907
 H        -0.621120        -0.201638        -0.683196
 H         4.041096        -1.154766        -0.118930
 H         2.277312         0.021636         2.064842
 H         2.434518         2.442836         1.822541
 H         3.942580         2.221800         1.433729
 H         2.582950         2.097817        -2.122761
 H         4.203820         1.764878        -1.524417
 H         2.533528        -0.350597        -1.853008
