19
Iteration:  2195
 C        -0.009784         0.513637        -0.035300
 C         1.429293         0.091160        -0.003142
 O         1.881313        -1.359223         0.065956
 C         3.117775        -0.599565         0.238721
 C         2.453621         0.430381         1.130770
 C         3.030728         1.883527         1.131698
 O         2.773945         2.638226        -0.039211
 C         2.902569         1.936237        -1.412356
 C         2.598800         0.400280        -1.101205
 H        -0.591220         0.003387         0.886028
 H        -0.146660         1.589953        -0.056344
 H        -0.474186         0.174409        -1.039590
 H         4.024486        -1.261129         0.570212
 H         2.311686         0.104479         2.202019
 H         2.580932         2.553049         1.957075
 H         4.052965         1.674131         1.321155
 H         2.142654         2.494809        -2.103980
 H         3.963344         2.048261        -1.642398
 H         2.623326        -0.164986        -2.005511
