19
Iteration:  1585
 C        -0.171122         0.501642         0.108430
 C         1.417935         0.080092         0.019147
 O         1.908793        -1.325438         0.034471
 C         3.097547        -0.547495         0.063667
 C         2.488059         0.385676         1.077837
 C         2.905851         1.879443         1.155173
 O         2.806699         2.654947        -0.117467
 C         3.089168         1.882253        -1.275871
 C         2.591721         0.424579        -1.064213
 H        -0.351790         0.242459         1.119276
 H        -0.311959         1.522335        -0.181686
 H        -0.790283        -0.132100        -0.516377
 H         4.080067        -1.155996        -0.040491
 H         2.528490        -0.084180         2.048143
 H         2.088257         2.427669         1.559012
 H         3.948359         2.040392         1.659864
 H         2.725573         2.497889        -2.056457
 H         4.304526         1.804745        -1.370239
 H         2.547388        -0.159105        -1.998894
