19
Iteration:   576
 C        -0.040214         0.441095         0.035840
 C         1.342443         0.126814         0.082456
 O         1.871912        -1.389041         0.071918
 C         3.110404        -0.486927         0.006566
 C         2.539488         0.452871         1.033087
 C         2.998882         1.981644         1.123174
 O         2.745555         2.647151        -0.078108
 C         3.132628         1.769397        -1.152647
 C         2.427554         0.391284        -1.116366
 H        -0.687179         0.282684         0.887796
 H        -0.218141         1.586625        -0.425635
 H        -0.527707        -0.190401        -0.683693
 H         4.165999        -0.866260        -0.049952
 H         2.482374        -0.044551         2.091156
 H         2.512767         2.561725         1.973513
 H         4.108215         1.983505         1.303330
 H         2.770877         2.403914        -2.109872
 H         4.258375         1.716913        -1.008118
 H         2.362428        -0.130678        -2.116874
