19
Iteration:   664
 C        -0.105417         0.473205        -0.128134
 C         1.398882         0.101444         0.095997
 O         1.914217        -1.327754         0.150780
 C         3.160142        -0.455332         0.011998
 C         2.520164         0.419826         1.092782
 C         3.005462         1.939204         1.144776
 O         2.778816         2.622047        -0.033276
 C         3.056294         1.790569        -1.261073
 C         2.393785         0.376425        -1.049210
 H        -0.677974        -0.089386         0.593547
 H        -0.106162         1.641265         0.102359
 H        -0.317515         0.306520        -1.155371
 H         4.102785        -1.021959        -0.173381
 H         2.544893        -0.057785         2.161659
 H         2.591999         2.336862         2.113167
 H         4.128585         1.975781         1.355882
 H         2.394855         2.346638        -2.121172
 H         4.045781         1.731078        -1.657301
 H         2.296891        -0.072433        -2.070280
