19
Iteration:   336charge 0 multiplicity 1
 C        -0.065385         0.469144        -0.040157
 C         1.335298         0.147789         0.129805
 O         1.893967        -1.346646         0.130990
 C         3.088735        -0.486775        -0.037909
 C         2.590147         0.460534         1.046334
 C         3.046240         1.825473         1.161000
 O         2.747355         2.654889        -0.077022
 C         3.060914         1.780687        -1.202781
 C         2.456687         0.410639        -1.082320
 H        -0.718323         0.083294         0.737109
 H        -0.308271         1.621420        -0.116377
 H        -0.363585         0.153883        -1.014436
 H         4.070506        -0.889566         0.000959
 H         2.532174         0.026001         2.069345
 H         2.362684         2.249810         1.898358
 H         4.115232         2.041657         1.314542
 H         2.698604         2.341976        -2.046031
 H         4.187399         1.820043        -1.466496
 H         2.255668        -0.122330        -2.015769
