19
Iteration:   362
 C         0.052258         0.436903         0.047685
 C         1.432974         0.114549         0.067070
 O         1.762384        -1.289075         0.062609
 C         3.138577        -0.611914        -0.100938
 C         2.569362         0.481530         1.073219
 C         2.942899         2.005762         1.198767
 O         2.802930         2.587399        -0.077057
 C         2.984529         1.802078        -1.173438
 C         2.526126         0.397561        -1.074781
 H        -0.376867         0.272146         1.076704
 H        -0.167084         1.467640        -0.206723
 H        -0.622759        -0.116475        -0.889847
 H         4.039463        -1.319118        -0.000822
 H         2.341005        -0.067224         2.033331
 H         2.146152         2.584195         1.808952
 H         3.984329         2.259852         1.454505
 H         2.667915         2.448449        -2.019154
 H         4.130758         1.803916        -1.476048
 H         2.297822        -0.075916        -2.091708
