19
Iteration:  4007
 C        -0.039532         0.492593         0.096722
 C         1.431633         0.162771         0.005431
 O         1.890704        -1.303006         0.121841
 C         3.131006        -0.464846         0.130081
 C         2.518543         0.529002         1.120557
 C         2.902371         1.906883         1.094976
 O         2.752120         2.578973        -0.162199
 C         3.080411         1.730288        -1.313754
 C         2.524344         0.306107        -1.097939
 H        -0.593001         0.082175         0.976160
 H        -0.175143         1.633597        -0.015304
 H        -0.694292         0.168250        -0.777547
 H         4.083755        -1.018177         0.186224
 H         2.339906         0.071774         2.101057
 H         2.344969         2.452292         1.821214
 H         3.993234         2.111674         1.447337
 H         2.559675         2.199276        -2.163584
 H         4.171463         1.824298        -1.490172
 H         2.347025        -0.345710        -1.966929
