19
Iteration:  1068charge 0 multiplicity 1
 C        -0.099528         0.486577         0.049141
 C         1.371322         0.101277         0.016596
 O         1.914888        -1.357087         0.049846
 C         3.180636        -0.479512        -0.006374
 C         2.484577         0.446571         1.075900
 C         2.914135         1.909409         1.170661
 O         2.818303         2.661532        -0.074677
 C         3.105220         1.792676        -1.204632
 C         2.474117         0.383268        -1.087298
 H        -0.567351         0.431580         1.184017
 H        -0.150696         1.527691        -0.057160
 H        -0.820346        -0.032532        -0.729064
 H         4.104439        -1.152973        -0.057008
 H         2.384753        -0.054048         2.008234
 H         2.061928         2.440350         1.674908
 H         3.944765         2.002054         1.651327
 H         2.842274         2.344136        -2.088931
 H         4.230865         1.598916        -1.391602
 H         2.322160        -0.109269        -2.059613
