19
Iteration:  4768charge 0 multiplicity 1
 C        -0.104913         0.371200        -0.005823
 C         1.392695         0.105504         0.098271
 O         1.869128        -1.336019         0.227694
 C         3.156000        -0.396661         0.060709
 C         2.443274         0.509616         1.059748
 C         2.961231         1.914297         1.016936
 O         2.871037         2.640866        -0.160697
 C         3.129859         1.795624        -1.263540
 C         2.393163         0.349655        -1.037638
 H        -0.516593        -0.242158         0.769463
 H        -0.221819         1.390052         0.360049
 H        -0.306741         0.155547        -1.019567
 H         4.173658        -0.866692        -0.002324
 H         2.172987         0.229957         2.056058
 H         2.244614         2.496568         1.750853
 H         4.119798         1.845066         1.447989
 H         2.816606         2.341111        -2.136358
 H         4.285066         1.722201        -1.551375
 H         2.179606        -0.189015        -1.980475
