19
Iteration:  4972
 C        -0.004777         0.322448        -0.037510
 C         1.383859         0.152528         0.044619
 O         1.796866        -1.311176         0.153254
 C         3.103940        -0.529111         0.072413
 C         2.508543         0.641368         1.101512
 C         3.086484         2.015832         1.113923
 O         2.860694         2.628579        -0.111298
 C         2.958011         1.729871        -1.274482
 C         2.472534         0.317478        -1.053475
 H        -0.441539        -0.493147         0.600522
 H        -0.188243         1.290006         0.256860
 H        -0.460435         0.326050        -1.055755
 H         4.006742        -1.076477         0.187210
 H         2.305970         0.248381         2.147702
 H         2.438932         2.521742         1.780793
 H         4.102543         2.147221         1.444335
 H         2.417484         2.177195        -2.177404
 H         4.075705         1.869043        -1.609162
 H         2.365314        -0.340729        -1.940128
