19
Iteration:   760
 C         0.040623         0.427530         0.019438
 C         1.486139         0.135366         0.023024
 O         1.862347        -1.274447         0.112371
 C         3.073913        -0.485020        -0.043903
 C         2.527963         0.421376         1.048223
 C         2.962243         1.942934         1.145291
 O         2.759163         2.582384        -0.022271
 C         3.028591         1.770968        -1.218953
 C         2.411986         0.412992        -1.083408
 H        -0.494992         0.196199         0.888352
 H        -0.164038         1.578985        -0.385818
 H        -0.297851        -0.102844        -0.818481
 H         4.083473        -1.127603        -0.042590
 H         2.338931         0.086582         2.140728
 H         2.385139         2.640718         1.846734
 H         3.928269         1.994236         1.678886
 H         2.629718         2.336342        -2.075858
 H         4.157026         1.645528        -1.371540
 H         2.356593        -0.139417        -2.068704
