19
Iteration:   167
 C        -0.040244         0.453378         0.052687
 C         1.385480         0.165263        -0.029532
 O         1.862237        -1.266122         0.024031
 C         3.111369        -0.470778         0.116911
 C         2.450083         0.502600         1.098906
 C         3.048025         1.832821         1.089662
 O         2.745932         2.502827        -0.062633
 C         3.044006         1.832025        -1.258552
 C         2.562436         0.393750        -1.025499
 H        -0.468965         0.032886         0.934957
 H        -0.201200         1.459152         0.065491
 H        -0.696976         0.083763        -0.819253
 H         4.185984        -1.007807         0.153932
 H         2.299681         0.015609         2.127167
 H         2.569410         2.601696         1.788114
 H         4.111712         1.897148         1.350946
 H         2.412213         2.448644        -2.045650
 H         4.138671         1.846012        -1.508021
 H         2.429635        -0.125653        -2.058481
