19
Iteration:   491charge 0 multiplicity 1
 C        -0.085668         0.496490        -0.024274
 C         1.352423         0.118251         0.048427
 O         1.958879        -1.374108         0.067389
 C         3.063333        -0.497158         0.107291
 C         2.408906         0.476625         1.103524
 C         3.087564         1.820377         1.093785
 O         2.783475         2.633956        -0.098087
 C         2.971647         1.855845        -1.227312
 C         2.555080         0.397944        -1.058295
 H        -0.561481        -0.054120         0.788177
 H         0.001148         1.569972         0.392715
 H        -0.523716         0.342577        -1.065344
 H         4.110876        -0.901108         0.209608
 H         2.410728         0.195018         2.182471
 H         2.641044         2.534172         1.849619
 H         4.211321         1.537921         1.144352
 H         2.344918         2.229723        -2.033078
 H         4.039542         1.959914        -1.464564
 H         2.452815        -0.045191        -2.123083
