19
Iteration:  4212charge 0 multiplicity 1
 C        -0.049868         0.446069         0.121505
 C         1.412195         0.197380         0.033060
 O         1.858159        -1.262576         0.138148
 C         3.132971        -0.470212         0.069369
 C         2.466978         0.435384         1.078137
 C         2.947798         1.962972         1.069775
 O         2.715810         2.562529        -0.145579
 C         3.112633         1.751201        -1.261339
 C         2.612242         0.328981        -1.099684
 H        -0.604357         0.076754         0.974553
 H        -0.154105         1.605469         0.047773
 H        -0.526865         0.016960        -0.701636
 H         4.100953        -1.139999         0.170419
 H         2.079867         0.059373         2.011518
 H         2.222825         2.595049         1.731562
 H         4.057314         1.916260         1.164646
 H         2.810348         2.320022        -2.231861
 H         4.118403         1.834922        -1.364048
 H         2.339323        -0.354726        -1.906240
