19
Iteration:  4883charge 0 multiplicity 1
 C        -0.016388         0.529278        -0.011079
 C         1.485705         0.225308         0.080069
 O         1.875151        -1.348843         0.223589
 C         3.112475        -0.556003         0.083275
 C         2.563198         0.454647         1.071066
 C         2.947666         1.981639         1.113978
 O         2.660561         2.562819        -0.156688
 C         3.053244         1.777041        -1.277387
 C         2.501814         0.382042        -1.116024
 H        -0.491595         0.454605         1.023623
 H        -0.385544         1.387416        -0.521050
 H        -0.444998        -0.265589        -0.720497
 H         3.943704        -1.219201         0.305321
 H         2.450148        -0.027905         2.114357
 H         2.281963         2.508453         1.712600
 H         4.167809         1.892144         1.422910
 H         2.805016         2.312439        -2.266652
 H         4.224668         1.748141        -1.486446
 H         2.347696        -0.189890        -2.069889
