19
Iteration:  4219charge 0 multiplicity 1
 C        -0.077032         0.498443         0.088231
 C         1.419643         0.159139         0.012631
 O         1.865185        -1.239185         0.158966
 C         3.159677        -0.533833         0.108742
 C         2.509362         0.466295         1.098560
 C         2.946486         1.933193         1.081465
 O         2.705770         2.537874        -0.172178
 C         3.080977         1.822633        -1.280659
 C         2.575555         0.337411        -1.108514
 H        -0.522570        -0.045682         0.984770
 H        -0.208486         1.573400        -0.029894
 H        -0.633466         0.016499        -0.823471
 H         4.032101        -1.134183         0.107120
 H         2.340895         0.016383         2.138854
 H         2.322875         2.403904         1.831967
 H         3.988358         2.052490         1.366966
 H         2.834198         2.235266        -2.232439
 H         4.282470         1.765860        -1.266110
 H         2.296837        -0.309253        -1.965762
