19
Iteration:  1265charge 0 multiplicity 1
 C        -0.005864         0.414760         0.090734
 C         1.451992         0.182152        -0.066019
 O         1.852119        -1.258019        -0.007747
 C         3.027964        -0.475168         0.041420
 C         2.432593         0.480586         1.065901
 C         2.979485         1.957929         1.202845
 O         2.738966         2.595931        -0.091555
 C         3.102807         1.738048        -1.183815
 C         2.594643         0.363146        -1.107964
 H        -0.214848         0.035392         1.158724
 H        -0.342405         1.390670         0.070249
 H        -0.621204        -0.305377        -0.543843
 H         4.000961        -1.193659         0.035104
 H         2.178794         0.024569         2.033056
 H         2.581633         2.598924         2.010335
 H         4.078728         1.928561         1.477969
 H         2.587344         2.221553        -2.035101
 H         4.174340         1.727645        -1.216966
 H         2.360311        -0.216057        -2.019158
