19
Iteration:  3437
 C        -0.185004         0.552191        -0.048489
 C         1.413343         0.120718         0.081879
 O         1.932047        -1.425483         0.199097
 C         3.152149        -0.500286         0.123794
 C         2.595182         0.532368         1.118274
 C         3.007994         1.968509         1.116066
 O         2.708632         2.531690        -0.108754
 C         3.010647         1.804485        -1.320041
 C         2.567971         0.360419        -1.139053
 H        -0.864946         0.028883         0.635941
 H        -0.345167         1.671173         0.103519
 H        -0.577646         0.540561        -1.074707
 H         3.960944        -1.120199         0.233624
 H         2.420177         0.140586         2.168614
 H         2.544635         2.720857         1.769189
 H         4.120605         1.919217         1.141616
 H         2.408753         2.396577        -2.052851
 H         4.083879         1.815002        -1.661793
 H         2.499443        -0.331085        -1.984315
