19
Iteration:  3359charge 0 multiplicity 1
 C        -0.081204         0.420999         0.082194
 C         1.441198         0.111589         0.033355
 O         1.899432        -1.283770         0.062380
 C         3.138904        -0.411102         0.132372
 C         2.370968         0.516147         1.109914
 C         2.998395         1.931778         1.042002
 O         2.798728         2.580267        -0.122774
 C         3.053710         1.781998        -1.264166
 C         2.543890         0.322231        -1.088942
 H        -0.562749         0.488952         1.108656
 H        -0.378894         1.350060        -0.303440
 H        -0.652151        -0.417468        -0.461229
 H         4.044709        -0.895980         0.141724
 H         2.251122         0.063174         2.105408
 H         2.526614         2.653588         1.788421
 H         4.236518         1.748438         1.396500
 H         2.626142         2.396512        -2.112037
 H         4.119782         1.735406        -1.420077
 H         2.276135        -0.398304        -1.934389
