19
Iteration:  1555
 C         0.030055         0.429803         0.016351
 C         1.428437         0.081085        -0.062882
 O         1.879724        -1.255059         0.027351
 C         3.098008        -0.483979         0.106027
 C         2.426750         0.534973         1.101827
 C         3.037335         1.897676         1.161189
 O         2.709587         2.575651        -0.026183
 C         3.038316         1.792004        -1.236236
 C         2.501827         0.364768        -1.092362
 H        -0.141819         0.095149         1.000771
 H        -0.084545         1.667189        -0.099952
 H        -0.617502        -0.023034        -0.684141
 H         4.043699        -1.071002        -0.056268
 H         2.260066         0.055648         2.052365
 H         2.483691         2.600720         1.937118
 H         4.053747         1.742609         1.356970
 H         2.678965         2.468207        -2.061476
 H         4.053036         1.779969        -1.511461
 H         2.355270        -0.290632        -1.972241
