19
Iteration:  3268
 C        -0.125040         0.444167         0.059308
 C         1.355447         0.156871         0.002073
 O         1.886386        -1.355296         0.104580
 C         3.121727        -0.399847         0.148831
 C         2.461438         0.489027         1.102174
 C         3.029167         1.922462         1.104813
 O         2.749431         2.588864        -0.139693
 C         3.046266         1.775755        -1.314567
 C         2.627980         0.333926        -1.027909
 H        -0.654860        -0.137526         0.803478
 H        -0.283502         1.570128         0.271307
 H        -0.337916         0.266421        -0.985360
 H         3.999448        -0.903224         0.252982
 H         2.403973         0.063369         2.097284
 H         2.665064         2.637740         1.835124
 H         4.111296         1.778682         1.008404
 H         2.380575         2.183860        -2.092929
 H         4.063862         1.918214        -1.654081
 H         2.519687        -0.234971        -1.961537
