19
Iteration:  3778charge 0 multiplicity 1
 C        -0.111516         0.384531        -0.032552
 C         1.348066         0.100332         0.008509
 O         1.912926        -1.219722         0.132825
 C         3.123718        -0.488001         0.161134
 C         2.451147         0.494486         1.150874
 C         3.111318         1.926852         1.023256
 O         2.773205         2.606812        -0.106462
 C         2.977374         1.732671        -1.331844
 C         2.568857         0.390315        -1.017690
 H        -0.578790         0.046695         0.877625
 H        -0.290762         1.492131        -0.064223
 H        -0.554773        -0.039648        -0.877431
 H         4.097712        -0.910723         0.201647
 H         2.146926         0.232844         2.232735
 H         2.696496         2.519556         1.948842
 H         4.143672         1.893318         1.219652
 H         2.459059         2.248170        -2.127907
 H         4.121514         1.578932        -1.549199
 H         2.400124        -0.196587        -1.915957
