19
Iteration:   455charge 0 multiplicity 1
 C        -0.056981         0.360119        -0.148779
 C         1.431573         0.212028         0.125788
 O         1.777259        -1.237223         0.156597
 C         3.045517        -0.554175        -0.043507
 C         2.652798         0.485732         1.101410
 C         3.122624         1.892996         1.191735
 O         2.720009         2.597491        -0.045401
 C         3.004352         1.828806        -1.241075
 C         2.507005         0.340210        -1.086427
 H        -0.638142        -0.224466         0.566654
 H        -0.553776         1.499367        -0.053612
 H        -0.421126         0.129981        -1.079384
 H         4.061380        -0.953171        -0.013446
 H         2.754127        -0.141206         2.053978
 H         2.625467         2.525715         1.961857
 H         4.184327         1.987731         1.565022
 H         2.350040         2.397200        -1.995770
 H         4.041275         1.984571        -1.609706
 H         2.400409        -0.207556        -2.051135
