19
Iteration:   723
 C        -0.086683         0.468316         0.133026
 C         1.341544         0.122482         0.030384
 O         1.878074        -1.349758        -0.015877
 C         3.129382        -0.534261         0.089730
 C         2.416492         0.471989         1.090593
 C         3.020326         1.902619         1.065747
 O         2.689909         2.619310        -0.090687
 C         3.132897         1.830782        -1.209029
 C         2.642627         0.436692        -1.116147
 H        -0.411647         0.254274         1.242170
 H        -0.260275         1.487705         0.014946
 H        -0.856679        -0.206376        -0.508126
 H         4.013698        -1.134028         0.167009
 H         2.233654         0.023217         1.994913
 H         2.376135         2.308315         1.825521
 H         4.135768         2.014220         1.237665
 H         2.747281         2.435153        -1.992509
 H         4.246032         1.746245        -1.326734
 H         2.771889        -0.074300        -2.060204
