19
Iteration:  4969charge 0 multiplicity 1
 C        -0.026142         0.322851        -0.012782
 C         1.402521         0.147065         0.043110
 O         1.800425        -1.311735         0.154705
 C         3.090334        -0.494656         0.076585
 C         2.492966         0.629438         1.102590
 C         3.082444         2.000777         1.091548
 O         2.863527         2.625230        -0.117783
 C         2.976053         1.751676        -1.270941
 C         2.489457         0.291597        -1.074276
 H        -0.547924        -0.478858         0.576030
 H        -0.195295         1.379967         0.292418
 H        -0.412590         0.310032        -1.058794
 H         4.065251        -1.069272         0.129121
 H         2.338242         0.233328         2.135781
 H         2.401237         2.601453         1.907308
 H         4.076450         2.131277         1.501259
 H         2.446741         2.129866        -2.153706
 H         4.019936         1.899707        -1.550651
 H         2.340424        -0.386317        -1.930836
