19
Iteration:   984charge 0 multiplicity 1
 C         0.000481         0.453929        -0.183045
 C         1.389498         0.122326         0.039436
 O         1.880421        -1.318951         0.205427
 C         3.121363        -0.440488         0.022547
 C         2.521902         0.457507         1.114402
 C         3.120919         1.922486         1.155332
 O         2.744895         2.615314        -0.016723
 C         3.025696         1.819395        -1.183676
 C         2.308860         0.366769        -1.100962
 H        -0.648127        -0.158342         0.442280
 H        -0.191618         1.500503        -0.106608
 H        -0.232984         0.025900        -1.208805
 H         3.941452        -1.143668        -0.024611
 H         2.479903        -0.147863         2.068534
 H         2.888320         2.570720         2.058449
 H         4.231254         1.732461         1.128408
 H         2.546881         2.256485        -2.198803
 H         4.093983         1.918922        -1.485506
 H         2.262048        -0.165622        -2.140807
