19
Iteration:  1741charge 0 multiplicity 1
 C        -0.030024         0.496145         0.011708
 C         1.414699         0.197063         0.038438
 O         1.935380        -1.355166         0.009070
 C         3.129965        -0.521238        -0.028358
 C         2.515896         0.450708         1.088776
 C         2.898357         2.021168         1.208781
 O         2.750422         2.615753        -0.086363
 C         3.056285         1.723196        -1.171507
 C         2.498822         0.288243        -1.050439
 H        -0.507046         0.442765         0.930476
 H        -0.035898         1.741529         0.030582
 H        -0.486714         0.068493        -0.844364
 H         4.113998        -1.112838        -0.080663
 H         2.425255        -0.021022         2.055936
 H         2.232797         2.585542         1.909269
 H         3.997521         2.001163         1.477969
 H         2.580241         2.211708        -2.005578
 H         4.058470         1.743856        -1.522708
 H         2.088629        -0.148071        -1.976916
