19
Iteration:  3773
 C        -0.096167         0.392923        -0.026842
 C         1.398490         0.115248         0.037611
 O         1.915695        -1.240521         0.126172
 C         3.130561        -0.475565         0.145192
 C         2.400929         0.544953         1.147070
 C         3.094115         1.897842         1.054491
 O         2.779198         2.604847        -0.105490
 C         2.983847         1.765760        -1.351473
 C         2.526399         0.358946        -0.991339
 H        -0.602802        -0.074071         0.855921
 H        -0.156108         1.496252        -0.174886
 H        -0.558712        -0.183619        -0.911063
 H         4.088036        -1.114374         0.220497
 H         2.176768         0.261143         2.141670
 H         2.787736         2.546535         1.826093
 H         4.242666         1.837390         1.272494
 H         2.534489         2.308526        -2.216517
 H         3.988231         1.613771        -1.650769
 H         2.368713        -0.167619        -1.959279
