19
Iteration:   772
 C         0.005585         0.417606        -0.062916
 C         1.414356         0.145860         0.077033
 O         1.813359        -1.327172         0.126403
 C         3.102965        -0.537056         0.006476
 C         2.630165         0.524666         1.056625
 C         2.955102         1.914330         1.211499
 O         2.809320         2.601104        -0.076003
 C         3.004327         1.847843        -1.203154
 C         2.464871         0.374062        -1.116322
 H        -0.607588         0.124820         0.766501
 H        -0.108103         1.586614        -0.236292
 H        -0.336389        -0.140722        -0.866068
 H         4.115493        -1.085183        -0.054504
 H         2.504571        -0.097187         2.021221
 H         2.179821         2.250013         1.949483
 H         3.997841         2.086826         1.462883
 H         2.443779         2.417420        -2.021022
 H         4.107749         1.854014        -1.493559
 H         2.059454        -0.076955        -2.054439
