19
Iteration:  1995charge 0 multiplicity 1
 C        -0.072489         0.435349        -0.027627
 C         1.410305         0.156003        -0.034413
 O         1.925802        -1.323552         0.079389
 C         3.108230        -0.475053         0.117665
 C         2.409547         0.514079         1.076111
 C         3.006803         1.870510         1.204780
 O         2.840171         2.621751        -0.088079
 C         2.955644         1.795875        -1.263492
 C         2.586969         0.367132        -1.074181
 H        -0.556934         0.132527         0.874249
 H        -0.198012         1.515703        -0.016113
 H        -0.686947        -0.017349        -0.788654
 H         4.130561        -0.936573         0.221928
 H         2.143100         0.006100         1.991760
 H         2.618655         2.400120         2.086187
 H         4.122358         1.795876         1.431313
 H         2.217320         2.131311        -1.969409
 H         3.900535         1.931222        -1.797371
 H         2.445314        -0.145450        -1.974450
