19
Iteration:  1184
 C        -0.122170         0.405321        -0.124132
 C         1.415346         0.194577         0.021493
 O         1.833969        -1.301449         0.123870
 C         3.128681        -0.500089         0.014454
 C         2.607524         0.458000         1.128521
 C         3.089884         1.908069         1.203592
 O         2.752383         2.599449        -0.037448
 C         2.958158         1.813166        -1.214550
 C         2.532650         0.385669        -1.074443
 H        -0.771929         0.055366         0.593278
 H        -0.135973         1.602280        -0.147175
 H        -0.357025         0.149226        -1.107354
 H         4.042749        -1.033062        -0.077838
 H         2.341386        -0.048674         2.077728
 H         2.574001         2.343637         1.997114
 H         4.188435         1.838835         1.371527
 H         2.331205         2.229560        -2.000657
 H         3.922230         1.822692        -1.646779
 H         2.408479        -0.152983        -1.986945
