19
Iteration:   314charge 0 multiplicity 1
 C        -0.084694         0.446962        -0.019330
 C         1.419578         0.084144        -0.055104
 O         1.893817        -1.271539         0.067394
 C         3.130743        -0.466652         0.103059
 C         2.446909         0.483596         1.197124
 C         3.120725         1.865165         1.159933
 O         2.739002         2.564532        -0.056713
 C         3.016325         1.794138        -1.248081
 C         2.446410         0.413095        -1.122093
 H        -0.561401        -0.111581         0.804071
 H        -0.174885         1.619427         0.171697
 H        -0.507010         0.308571        -0.988978
 H         4.064599        -0.929405        -0.025782
 H         2.271371         0.124878         2.220765
 H         2.926827         2.583058         1.932204
 H         4.208664         1.736194         1.033210
 H         2.573745         2.402857        -2.023659
 H         4.123584         1.858074        -1.564579
 H         2.239829        -0.178233        -2.005580
