19
Iteration:  2534
 C        -0.126828         0.377697        -0.012861
 C         1.374292         0.175642        -0.006195
 O         1.852095        -1.246982         0.111901
 C         3.138588        -0.440410         0.107437
 C         2.495088         0.446156         1.114271
 C         3.075882         1.862947         1.106106
 O         2.693879         2.571446        -0.074187
 C         3.090061         1.837414        -1.249052
 C         2.587199         0.375535        -1.068165
 H        -0.639793        -0.171489         0.884076
 H        -0.393521         1.459517         0.003819
 H        -0.599436        -0.107316        -0.926040
 H         4.287081        -0.917123         0.018801
 H         2.106287        -0.109494         1.998580
 H         2.812413         2.590676         1.875562
 H         4.179176         1.781086         1.266092
 H         2.523671         2.319958        -1.995824
 H         4.080240         1.951128        -1.670058
 H         2.539897        -0.055827        -2.045138
