19
Iteration:   208
 C         0.002979         0.428895         0.059050
 C         1.432591         0.146606         0.015053
 O         1.800014        -1.315035         0.072931
 C         3.101373        -0.560399         0.029392
 C         2.503534         0.464369         1.015285
 C         2.939413         1.899879         1.066788
 O         2.824276         2.624875        -0.088548
 C         3.054833         1.841944        -1.163495
 C         2.538990         0.431871        -1.057849
 H        -0.332293         0.348007         1.106152
 H        -0.218982         1.540832        -0.108632
 H        -0.696549        -0.366923        -0.526028
 H         4.059148        -1.181261         0.081637
 H         2.291297         0.142686         2.042332
 H         2.221930         2.324933         1.870572
 H         3.990381         1.938682         1.489726
 H         2.589147         2.338010        -2.075912
 H         4.161571         1.871570        -1.352877
 H         2.308988        -0.199974        -1.945047
