19
Iteration:  4846charge 0 multiplicity 1
 C        -0.052743         0.517597        -0.086130
 C         1.399962         0.079177         0.010567
 O         1.880835        -1.388387         0.157576
 C         3.139032        -0.471723         0.174953
 C         2.495499         0.536285         1.118230
 C         3.096176         1.938806         1.071814
 O         2.705572         2.594623        -0.142051
 C         2.913411         1.807258        -1.281231
 C         2.540468         0.324819        -1.031921
 H        -0.510533         0.585006         0.850138
 H        -0.013413         1.571894        -0.465914
 H        -0.531109        -0.223075        -0.635873
 H         4.113858        -0.998868         0.383256
 H         2.490747         0.098232         2.063446
 H         2.803629         2.625371         1.935269
 H         4.258008         1.942277         1.280915
 H         2.409636         2.288288        -2.073156
 H         4.068973         1.714845        -1.400597
 H         2.385538        -0.144892        -1.993609
