19
Iteration:  2587charge 0 multiplicity 1
 C         0.001322         0.550879        -0.109128
 C         1.414837         0.078594         0.049342
 O         1.883670        -1.342400         0.191510
 C         3.130658        -0.478690         0.053961
 C         2.562104         0.476816         1.077339
 C         2.987378         1.828244         1.106214
 O         2.697371         2.619529        -0.035719
 C         2.941236         1.846841        -1.268739
 C         2.565374         0.365983        -1.051995
 H        -0.619504         0.333276         0.842399
 H        -0.112603         1.598633        -0.258036
 H        -0.309464        -0.105351        -0.964481
 H         4.007110        -1.118007         0.022090
 H         2.545950        -0.066874         2.069866
 H         2.396852         2.497825         1.788152
 H         4.061198         1.776890         1.389230
 H         2.368464         2.375648        -2.082300
 H         4.018861         1.891632        -1.669214
 H         2.356376        -0.092598        -1.998843
