19
Iteration:  4350
 C        -0.088958         0.352125         0.004709
 C         1.391651         0.162188         0.027585
 O         1.907344        -1.270187         0.162250
 C         3.074119        -0.429861        -0.007329
 C         2.498327         0.474169         1.093984
 C         3.000690         1.964941         1.174624
 O         2.856684         2.634366        -0.171779
 C         3.083906         1.732729        -1.219286
 C         2.393063         0.331404        -1.078065
 H        -0.610666         0.110599         0.953613
 H        -0.261921         1.370444         0.106582
 H        -0.539880        -0.278277        -0.772422
 H         4.003551        -0.930919         0.061668
 H         2.408128         0.220559         2.193003
 H         2.220086         2.471326         1.623739
 H         4.192739         2.102626         1.423497
 H         2.806569         2.156776        -2.174549
 H         4.163956         1.679096        -1.278630
 H         2.406412        -0.228066        -2.032498
