19
Iteration:  4688
 C        -0.070427         0.562515        -0.046621
 C         1.406018         0.137353         0.049840
 O         1.930976        -1.391787         0.168352
 C         3.109926        -0.510872         0.064032
 C         2.547284         0.531283         1.032935
 C         2.991801         1.971502         1.122646
 O         2.695795         2.624934        -0.134948
 C         3.010046         1.734517        -1.234097
 C         2.507589         0.309994        -1.022590
 H        -0.468801         0.319817         0.918909
 H        -0.092905         1.491822        -0.448415
 H        -0.642637        -0.099461        -0.771279
 H         4.089481        -0.910505         0.110425
 H         2.439562         0.169141         2.095473
 H         2.636637         2.636290         2.011636
 H         4.113896         1.787158         1.304203
 H         2.540257         2.161494        -2.169440
 H         4.149641         1.545250        -1.231265
 H         2.421826        -0.117610        -2.039362
