19
Iteration:  1076
 C        -0.123957         0.514489         0.059751
 C         1.360411         0.033700         0.041654
 O         1.947216        -1.329908         0.033486
 C         3.110023        -0.505635        -0.038256
 C         2.546768         0.460976         1.058227
 C         2.924166         1.960363         1.183540
 O         2.803828         2.649228        -0.078852
 C         3.152471         1.767650        -1.177628
 C         2.441014         0.370642        -1.078839
 H        -0.686404         0.329851         0.929304
 H        -0.140709         1.587086        -0.211528
 H        -0.593068        -0.001321        -0.711883
 H         4.020656        -1.186285        -0.093440
 H         2.450110        -0.046026         2.008649
 H         2.107974         2.394531         1.733273
 H         3.848517         2.238978         1.709084
 H         2.785294         2.445906        -1.931809
 H         4.121131         1.588840        -1.408354
 H         2.389257        -0.137993        -1.972782
