19
Iteration:  3350
 C         0.030343         0.369875         0.060199
 C         1.411590         0.127822         0.017789
 O         1.864744        -1.338627         0.066302
 C         3.074410        -0.384376         0.079335
 C         2.384325         0.528315         1.127619
 C         3.037442         1.977119         1.153887
 O         2.798006         2.583224        -0.156493
 C         3.064904         1.735265        -1.302072
 C         2.484914         0.381831        -1.063688
 H        -0.208225         0.407127         1.155965
 H        -0.106731         1.344869        -0.455452
 H        -0.562329        -0.454824        -0.412973
 H         4.075179        -0.935373         0.135908
 H         2.051683         0.130549         2.126681
 H         2.516850         2.592835         1.924200
 H         4.073961         1.972512         1.509159
 H         2.596081         2.308280        -2.129005
 H         4.128753         1.697790        -1.465930
 H         2.221128        -0.256871        -1.919918
