19
Iteration:  3509charge 0 multiplicity 1
 C        -0.159142         0.440863         0.026179
 C         1.377646         0.156168         0.016331
 O         1.870301        -1.327326         0.205010
 C         3.174380        -0.453882         0.016552
 C         2.567813         0.503188         1.067992
 C         2.966040         1.956315         1.104297
 O         2.780874         2.618205        -0.165809
 C         3.080234         1.704590        -1.209061
 C         2.496454         0.380661        -1.081650
 H        -0.449105         0.199472         1.074844
 H        -0.557634         1.304744        -0.303080
 H        -0.697389        -0.311272        -0.641700
 H         4.218927        -0.994044         0.077273
 H         2.617385         0.181263         2.081377
 H         2.303355         2.542223         1.761571
 H         4.105532         1.905235         1.351810
 H         2.866300         2.272412        -2.127672
 H         4.143222         1.545808        -1.180569
 H         2.234832        -0.002234        -2.101073
