19
Iteration:  2500
 C        -0.094078         0.383570         0.107509
 C         1.423605         0.137195        -0.060847
 O         1.886449        -1.357887        -0.000980
 C         3.085972        -0.488192         0.073227
 C         2.480172         0.475913         1.061763
 C         2.976582         2.020095         1.110103
 O         2.839035         2.676168        -0.096024
 C         3.080796         1.764391        -1.191310
 C         2.513662         0.369215        -1.019932
 H        -0.587144        -0.182714         0.993905
 H        -0.394616         1.424041         0.073194
 H        -0.603522         0.007939        -0.858275
 H         4.209465        -1.004070         0.129877
 H         2.136784         0.042054         2.051482
 H         2.323483         2.489870         1.885341
 H         4.006947         1.916981         1.498740
 H         2.425470         2.167107        -1.926761
 H         4.128128         1.749270        -1.371052
 H         2.398401        -0.095407        -1.988363
