19
Iteration:  3205charge 0 multiplicity 1
 C        -0.083271         0.465815         0.000494
 C         1.421184         0.109410         0.055123
 O         1.900599        -1.279932         0.154944
 C         3.123164        -0.484235         0.080366
 C         2.599980         0.503957         1.121896
 C         3.000228         1.940430         1.091049
 O         2.682157         2.541073        -0.155234
 C         3.095758         1.771497        -1.306476
 C         2.454528         0.400449        -1.011263
 H        -0.863385         0.214093         0.788511
 H        -0.114318         1.559853        -0.220818
 H        -0.527426         0.084681        -0.997266
 H         4.069162        -1.097490         0.065508
 H         2.436794        -0.010216         2.064918
 H         2.411663         2.367406         1.989071
 H         4.124132         2.049606         1.394184
 H         2.619039         2.282022        -2.250833
 H         4.216301         1.684512        -1.367622
 H         2.210841        -0.250238        -1.924993
