19
Iteration:  4966
 C        -0.065103         0.330782         0.011759
 C         1.435363         0.133676         0.038920
 O         1.811752        -1.305111         0.160381
 C         3.076972        -0.456577         0.090245
 C         2.478420         0.591075         1.102776
 C         3.054988         1.991358         1.082936
 O         2.862247         2.624638        -0.135648
 C         3.001197         1.775454        -1.269982
 C         2.512997         0.267510        -1.093397
 H        -0.657181        -0.384319         0.540115
 H        -0.260381         1.459638         0.376698
 H        -0.338513         0.259139        -1.034819
 H         4.071377        -1.020507         0.060214
 H         2.377464         0.217727         2.082766
 H         2.465038         2.624052         1.924110
 H         4.121784         2.072573         1.557073
 H         2.432700         2.134448        -2.091245
 H         4.013973         1.857079        -1.514895
 H         2.299240        -0.380048        -1.947054
