19
Iteration:   488charge 0 multiplicity 1
 C        -0.068518         0.470424        -0.059131
 C         1.370256         0.109610         0.044989
 O         1.953817        -1.341041         0.074162
 C         3.062694        -0.507308         0.100326
 C         2.423442         0.480103         1.087505
 C         3.097423         1.830040         1.080860
 O         2.780751         2.609862        -0.086829
 C         2.972842         1.843681        -1.211524
 C         2.508876         0.399999        -1.025147
 H        -0.589083        -0.044492         0.748048
 H         0.010323         1.626615         0.421036
 H        -0.537253         0.397389        -1.000431
 H         4.120218        -0.834393         0.138345
 H         2.375723         0.178275         2.201710
 H         2.680174         2.579205         1.781864
 H         4.173724         1.592845         1.135766
 H         2.305195         2.344063        -2.017899
 H         4.076899         1.920122        -1.458085
 H         2.471288        -0.034796        -2.054613
