19
Iteration:  1339charge 0 multiplicity 1
 C        -0.037616         0.476289        -0.079503
 C         1.436543         0.134611        -0.022957
 O         1.866992        -1.309399         0.132297
 C         3.098464        -0.439299         0.114697
 C         2.493829         0.416654         1.140583
 C         3.030790         1.820763         1.138666
 O         2.775020         2.588644        -0.049993
 C         2.960732         1.850636        -1.302325
 C         2.527938         0.382299        -1.079154
 H        -0.643901        -0.055333         0.709981
 H        -0.098118         1.624922         0.161839
 H        -0.465722         0.294306        -1.094358
 H         4.120697        -0.837825         0.145607
 H         2.376549         0.009169         2.170264
 H         2.718998         2.447359         1.918239
 H         4.115219         1.719306         1.314853
 H         2.142277         2.306778        -1.887131
 H         4.026358         1.991804        -1.736266
 H         2.552080        -0.124654        -2.029396
