19
Iteration:  4760charge 0 multiplicity 1
 C        -0.047449         0.336996         0.070616
 C         1.375503         0.083134         0.018163
 O         1.826597        -1.334233         0.198061
 C         3.141586        -0.410831         0.097734
 C         2.461239         0.522111         1.091903
 C         2.935572         1.981471         1.083701
 O         2.872489         2.662489        -0.138812
 C         3.142428         1.770021        -1.348257
 C         2.435700         0.347154        -1.068928
 H        -0.549945        -0.337689         0.733348
 H        -0.201544         1.491381         0.143191
 H        -0.494989         0.283320        -0.923557
 H         4.094008        -1.010060        -0.035708
 H         2.389896         0.122197         2.093368
 H         2.362194         2.442377         1.807547
 H         3.905902         2.069816         1.377103
 H         2.755696         2.270140        -2.191359
 H         4.209160         1.504186        -1.354280
 H         2.255769        -0.096040        -2.026247
