19
Iteration:  3080charge 0 multiplicity 1
 C        -0.004237         0.342771        -0.018452
 C         1.418528         0.130894         0.051236
 O         1.832320        -1.279699         0.168780
 C         3.049222        -0.532339         0.133039
 C         2.601149         0.534259         1.068931
 C         2.999632         1.940427         1.063338
 O         2.745702         2.607077        -0.103482
 C         3.023349         1.825794        -1.299537
 C         2.500510         0.394700        -1.057824
 H        -0.536125        -0.295827         0.693035
 H        -0.397306         1.454230         0.211888
 H        -0.289991         0.080325        -1.038310
 H         3.954425        -1.070517         0.144923
 H         2.248043         0.383258         2.108662
 H         2.614620         2.491688         1.999066
 H         4.057367         1.684065         1.056354
 H         2.636959         2.369683        -2.178525
 H         4.147803         1.664073        -1.393210
 H         2.501209        -0.084296        -2.026428
