19
Iteration:  4202
 C        -0.014414         0.416101         0.129379
 C         1.428030         0.162385         0.037202
 O         1.841401        -1.323044         0.071645
 C         3.077513        -0.452625         0.073488
 C         2.413722         0.548436         1.087918
 C         2.943701         1.943133         1.091899
 O         2.711169         2.618751        -0.176585
 C         3.167641         1.685687        -1.263540
 C         2.579291         0.333218        -1.073564
 H        -0.352533         0.142079         1.097410
 H        -0.227094         1.527418         0.144501
 H        -0.500286         0.012238        -0.678453
 H         4.147452        -0.892949         0.207588
 H         2.174323         0.081194         2.018998
 H         2.651449         2.662967         1.921518
 H         4.065962         1.940640         1.411178
 H         2.493234         2.154171        -2.043075
 H         4.219583         1.689825        -1.435870
 H         2.581562        -0.136113        -2.056766
