19
Iteration:  1761charge 0 multiplicity 1
 C        -0.055383         0.485875         0.111811
 C         1.413517         0.072531        -0.051949
 O         1.838309        -1.314357         0.055121
 C         3.132061        -0.479158         0.093081
 C         2.529195         0.437029         1.110083
 C         2.892301         1.858104         1.128804
 O         2.767138         2.595626        -0.095829
 C         3.082696         1.856749        -1.287566
 C         2.552407         0.397172        -1.093352
 H        -0.384059         0.440024         1.189856
 H        -0.049364         1.690778        -0.128645
 H        -0.552929        -0.191972        -0.565138
 H         4.141923        -1.105492         0.082491
 H         2.332122         0.072030         2.103207
 H         2.158111         2.359596         1.693482
 H         3.824413         2.113753         1.611697
 H         2.764736         2.386201        -2.166759
 H         4.227616         1.861411        -1.307696
 H         2.531932        -0.119981        -2.088655
