19
Iteration:  1515charge 0 multiplicity 1
 C        -0.027016         0.410170        -0.183403
 C         1.418630         0.122065         0.094359
 O         1.841770        -1.289063         0.113305
 C         3.094608        -0.586137         0.005489
 C         2.582845         0.452357         1.144893
 C         3.117048         1.913175         1.147864
 O         2.723207         2.653426        -0.058605
 C         2.935115         1.844263        -1.219231
 C         2.471365         0.377775        -1.019186
 H        -0.703997        -0.157718         0.525196
 H        -0.132603         1.446141         0.040516
 H        -0.370770         0.290333        -1.227525
 H         3.995545        -1.145991         0.028488
 H         2.590823         0.193265         2.249424
 H         2.609051         2.461782         1.942689
 H         4.287166         2.070953         1.177782
 H         2.423595         2.349244        -2.118011
 H         4.086097         1.840291        -1.205857
 H         2.306230        -0.033268        -2.025143
