19
Iteration:   402
 C        -0.143486         0.528658         0.137680
 C         1.359007         0.065859        -0.023282
 O         1.976682        -1.355665        -0.022477
 C         3.159324        -0.488915         0.076677
 C         2.401946         0.514275         1.128879
 C         3.034490         1.867889         1.137781
 O         2.769421         2.565690        -0.117251
 C         3.068970         1.798942        -1.196215
 C         2.533357         0.449693        -1.114100
 H        -0.499603         0.478243         1.157717
 H        -0.291714         1.670838        -0.132082
 H        -0.849756         0.019440        -0.455097
 H         4.191567        -0.890840         0.078649
 H         2.110279         0.042538         2.109910
 H         2.466518         2.486636         1.851370
 H         4.086258         1.594710         1.455076
 H         2.570760         2.238678        -2.077258
 H         4.122329         1.733613        -1.483928
 H         2.442243        -0.024746        -2.135381
