19
Iteration:  3213charge 0 multiplicity 1
 C        -0.108660         0.451261        -0.017446
 C         1.361073         0.129554         0.076035
 O         1.866101        -1.270063         0.117888
 C         3.210695        -0.511231         0.058671
 C         2.587425         0.530497         1.129235
 C         3.033209         1.960399         1.145633
 O         2.662730         2.565066        -0.153542
 C         3.063512         1.713387        -1.254427
 C         2.510110         0.343645        -1.050808
 H        -0.797914         0.114345         0.774600
 H        -0.021493         1.650521        -0.044071
 H        -0.491459         0.114542        -0.988943
 H         4.041180        -1.078432        -0.130230
 H         2.481415         0.213971         2.165340
 H         2.568740         2.635150         1.898623
 H         4.050885         2.134133         1.364422
 H         2.648091         2.119151        -2.196313
 H         4.155577         1.658700        -1.406608
 H         2.258078        -0.145164        -1.998592
