19
Iteration:  1293charge 0 multiplicity 1
 C        -0.094227         0.431059        -0.051931
 C         1.406598         0.078850         0.080800
 O         1.810964        -1.325498         0.154377
 C         3.076104        -0.489732         0.022187
 C         2.568966         0.385663         1.042322
 C         3.040278         1.876701         1.150839
 O         2.749042         2.640052        -0.111223
 C         3.087006         1.879240        -1.238275
 C         2.549131         0.446280        -1.065902
 H        -0.631746        -0.059200         0.690326
 H        -0.368706         1.614105         0.018520
 H        -0.463750         0.071617        -0.962890
 H         3.906629        -1.032994         0.018809
 H         2.575664         0.004704         2.058189
 H         2.343431         2.363529         1.834028
 H         4.024211         2.126826         1.560521
 H         2.695359         2.404302        -2.111894
 H         4.270605         1.810776        -1.194836
 H         2.326649        -0.084463        -1.973590
