19
Iteration:  4362charge 0 multiplicity 1
 C        -0.059642         0.397332         0.067901
 C         1.405592         0.179989         0.033237
 O         1.904302        -1.341339         0.148753
 C         3.112875        -0.433530         0.060532
 C         2.502717         0.568472         1.094759
 C         2.918094         1.965565         1.105802
 O         2.858864         2.584944        -0.140376
 C         3.078771         1.702326        -1.264875
 C         2.414153         0.401858        -1.115977
 H        -0.350284        -0.147513         0.962029
 H        -0.425721         1.382116        -0.141218
 H        -0.494158        -0.089561        -0.793767
 H         4.096699        -0.901841        -0.080296
 H         2.169656        -0.028675         1.981228
 H         2.446118         2.514381         1.852812
 H         4.004382         2.055710         1.634499
 H         2.890377         2.316429        -2.119721
 H         4.098243         1.334058        -1.276121
 H         2.131838        -0.162526        -2.022824
