19
Iteration:  4188charge 0 multiplicity 1
 C        -0.064625         0.408310         0.093907
 C         1.387926         0.071617        -0.082584
 O         1.869589        -1.306720         0.058888
 C         3.101124        -0.503744         0.176965
 C         2.453853         0.533959         1.116705
 C         3.020347         1.998457         1.098229
 O         2.796967         2.614234        -0.179781
 C         3.061373         1.784195        -1.264563
 C         2.524667         0.356338        -1.047363
 H        -0.340837         0.019328         1.127596
 H        -0.187417         1.523123         0.117137
 H        -0.798785        -0.083277        -0.607503
 H         4.030491        -1.148202         0.223415
 H         2.322742         0.258281         2.208249
 H         2.356282         2.608412         1.781482
 H         4.080260         1.965520         1.252498
 H         2.910197         2.308756        -2.238435
 H         4.089669         1.692653        -1.237252
 H         2.302216        -0.303055        -1.888388
