19
Iteration:    56charge 0 multiplicity 1
 C        -0.103966         0.480823         0.072891
 C         1.407836         0.058039         0.051821
 O         1.842181        -1.440346         0.027653
 C         3.094960        -0.495799         0.046379
 C         2.481460         0.473682         1.021338
 C         3.000175         1.937204         1.079863
 O         2.824916         2.755466        -0.054725
 C         3.089512         1.845939        -1.179918
 C         2.497438         0.352207        -1.075859
 H        -0.511352         0.281131         1.029694
 H        -0.187334         1.473863        -0.200555
 H        -0.504102        -0.206094        -0.661796
 H         4.167300        -0.883376         0.157965
 H         2.249153         0.143805         2.055283
 H         2.603200         2.313754         2.029358
 H         4.057445         1.730432         1.266161
 H         2.587703         2.239901        -2.093680
 H         4.133136         1.688107        -1.333760
 H         2.366657        -0.096011        -2.108010
