19
Iteration:  3196charge 0 multiplicity 1
 C        -0.024764         0.501290        -0.035834
 C         1.444138         0.136183         0.105430
 O         1.914623        -1.322852         0.199892
 C         3.049362        -0.455749         0.077816
 C         2.546902         0.424197         1.111122
 C         2.973269         1.900664         1.057203
 O         2.723007         2.567119        -0.153440
 C         3.068632         1.811963        -1.296843
 C         2.447636         0.403841        -1.071168
 H        -0.472203         0.254487         0.953189
 H        -0.204571         1.472878        -0.184723
 H        -0.447480        -0.147699        -0.842859
 H         4.111271        -0.922227         0.295404
 H         2.434639        -0.074709         2.096964
 H         2.257698         2.435805         1.705233
 H         4.120382         1.975641         1.274542
 H         2.721469         2.469595        -2.131967
 H         4.179059         1.764042        -1.415843
 H         2.279329        -0.255257        -1.956674
