19
Iteration:  2603
 C        -0.056559         0.517962        -0.025451
 C         1.472662         0.178175        -0.036464
 O         1.936774        -1.308484         0.064626
 C         3.163001        -0.543437         0.097985
 C         2.512277         0.464677         1.111915
 C         3.012026         1.964972         1.202917
 O         2.713153         2.555154        -0.087801
 C         2.927879         1.765558        -1.226997
 C         2.517456         0.313625        -1.099517
 H        -0.577186         0.425955         0.903512
 H        -0.096748         1.662905        -0.228062
 H        -0.711249         0.121388        -0.792868
 H         4.273055        -1.058115         0.269035
 H         2.156685         0.047867         2.035458
 H         2.450916         2.404070         2.001227
 H         4.058225         2.090589         1.513427
 H         2.403010         2.303328        -2.046337
 H         3.923596         1.975405        -1.640702
 H         2.384926        -0.313793        -2.029716
