19
Iteration:  3895
 C        -0.081205         0.433283         0.019720
 C         1.433702         0.068195         0.018930
 O         1.829797        -1.295996         0.157743
 C         3.080879        -0.532937         0.106706
 C         2.449912         0.519976         1.087327
 C         3.026249         1.994021         1.106035
 O         2.767915         2.640904        -0.140178
 C         2.992713         1.773316        -1.294734
 C         2.632356         0.342435        -1.066587
 H        -0.435063         0.206615         1.007106
 H        -0.155760         1.568069        -0.267249
 H        -0.569492        -0.169137        -0.711234
 H         3.958271        -1.215491         0.272368
 H         2.505866         0.067725         2.003329
 H         2.660009         2.547700         1.866312
 H         4.082147         1.992918         1.352889
 H         2.448346         2.158106        -2.190051
 H         4.183215         1.853360        -1.430421
 H         2.584971        -0.156021        -2.004809
