19
Iteration:  2026charge 0 multiplicity 1
 C        -0.025528         0.405451        -0.153561
 C         1.432279         0.125860         0.087670
 O         1.868768        -1.358613         0.119631
 C         3.077669        -0.465794         0.072859
 C         2.557976         0.496277         1.074635
 C         2.962171         1.914624         1.216068
 O         2.917587         2.621144        -0.064039
 C         2.900972         1.822987        -1.277114
 C         2.474340         0.377150        -1.045330
 H        -0.714540         0.050456         0.598390
 H        -0.234580         1.588647         0.034804
 H        -0.232558         0.137099        -1.201333
 H         4.194611        -1.001692         0.237737
 H         2.520892         0.078861         2.065213
 H         2.246429         2.383885         1.820107
 H         4.043141         1.918825         1.518826
 H         2.162735         2.247150        -1.932943
 H         3.906189         1.888587        -1.807454
 H         2.219534        -0.063023        -2.012875
