19
Iteration:  3614charge 0 multiplicity 1
 C        -0.110529         0.494879        -0.090313
 C         1.310475         0.050297         0.074285
 O         1.926949        -1.306888         0.191678
 C         3.136122        -0.509114         0.093748
 C         2.595650         0.477879         1.110380
 C         3.066588         1.990911         1.098665
 O         2.719874         2.593734        -0.182619
 C         3.011088         1.813060        -1.271410
 C         2.502698         0.320289        -1.041300
 H        -0.733631        -0.005836         0.614557
 H        -0.282730         1.619397         0.250772
 H        -0.597156         0.294482        -0.999861
 H         3.918955        -1.202717         0.156293
 H         2.653805        -0.001927         2.165847
 H         2.641293         2.643321         1.910593
 H         4.108872         2.133008         1.432102
 H         2.626258         2.340973        -2.117489
 H         4.082428         1.782010        -1.448561
 H         2.333138        -0.302837        -1.891192
