19
Iteration:  4554charge 0 multiplicity 1
 C        -0.085767         0.366424         0.052821
 C         1.389625         0.183028         0.068698
 O         1.846016        -1.377409         0.184429
 C         3.136863        -0.520769         0.005872
 C         2.543834         0.531351         1.070448
 C         2.920628         2.000502         1.144598
 O         2.829714         2.676572        -0.165297
 C         3.132178         1.770917        -1.311988
 C         2.482347         0.347270        -1.068549
 H        -0.506048        -0.008445         0.978076
 H        -0.446435         1.366835         0.050991
 H        -0.523099         0.009444        -0.860301
 H         4.011984        -1.207449        -0.078414
 H         2.466669         0.091489         2.077591
 H         2.096929         2.547679         1.704373
 H         3.916758         2.060503         1.679792
 H         2.532183         2.317620        -2.079807
 H         4.281468         1.605887        -1.369839
 H         2.371221        -0.162071        -2.044446
