19
Iteration:   747
 C        -0.054163         0.459600         0.033105
 C         1.400664         0.143672         0.029321
 O         1.904674        -1.291590         0.043590
 C         3.157240        -0.476489        -0.018370
 C         2.462802         0.478930         1.144278
 C         2.970902         1.884523         1.207129
 O         2.728119         2.614814        -0.116604
 C         3.086491         1.775753        -1.215132
 C         2.498858         0.377576        -1.101572
 H        -0.364006         0.312767         1.068802
 H        -0.174317         1.622731        -0.113564
 H        -0.731577        -0.182646        -0.580443
 H         4.179473        -1.037879        -0.127021
 H         2.303387        -0.163055         2.023476
 H         2.364964         2.388049         1.996905
 H         4.072753         1.912824         1.292828
 H         2.756598         2.280195        -2.078584
 H         4.219005         1.642805        -1.286017
 H         2.220138        -0.117269        -2.068196
