19
Iteration:  1401
 C        -0.127897         0.428127         0.047885
 C         1.344028         0.138177         0.096905
 O         1.906030        -1.287234         0.106043
 C         3.080708        -0.467644        -0.039972
 C         2.535865         0.445690         1.079514
 C         2.962074         1.885821         1.123138
 O         2.733660         2.584703        -0.088052
 C         3.181827         1.788266        -1.185783
 C         2.519015         0.451384        -1.151010
 H        -0.756825         0.273046         0.858477
 H        -0.272743         1.479760        -0.350186
 H        -0.434824        -0.228940        -0.727444
 H         4.088752        -0.908105         0.043728
 H         2.518849        -0.048346         2.037081
 H         2.390174         2.442946         1.979767
 H         4.079245         1.889651         1.412529
 H         2.712936         2.281947        -2.027211
 H         4.268359         1.710269        -1.200005
 H         2.466832        -0.137771        -2.055203
