19
Iteration:  1799
 C        -0.112388         0.369225         0.049148
 C         1.389260         0.142872        -0.085878
 O         1.859352        -1.303701         0.009874
 C         3.108067        -0.479043         0.112430
 C         2.543672         0.496375         1.110455
 C         3.059969         1.993894         1.148498
 O         2.769508         2.612558        -0.087947
 C         3.074112         1.783616        -1.177323
 C         2.503321         0.359981        -1.102867
 H        -0.498819         0.137528         1.025982
 H        -0.366461         1.318568        -0.333905
 H        -0.800180        -0.196380        -0.600549
 H         3.920914        -1.056047        -0.031154
 H         2.304254         0.140131         2.152102
 H         2.381447         2.477330         1.969773
 H         4.152349         2.113268         1.505126
 H         2.747124         2.435336        -2.029560
 H         4.076480         1.517351        -1.192014
 H         2.476718        -0.278831        -1.967775
