19
Iteration:   622
 C        -0.120220         0.453140        -0.016019
 C         1.430585         0.141281         0.020834
 O         1.792381        -1.331291         0.055990
 C         3.141596        -0.480773         0.112147
 C         2.503697         0.513936         1.108874
 C         3.102834         1.852521         1.122500
 O         2.775799         2.607273        -0.046731
 C         2.933073         1.879361        -1.314694
 C         2.687538         0.362154        -1.055142
 H        -0.511426        -0.253436         0.788528
 H        -0.351646         1.578603         0.020270
 H        -0.613666        -0.092991        -0.983555
 H         4.068138        -0.964993         0.343572
 H         2.146844         0.102243         2.076723
 H         2.582914         2.401625         1.926130
 H         4.158007         1.769131         1.460338
 H         2.063460         2.184749        -2.014260
 H         4.034499         2.039807        -1.677142
 H         2.432309        -0.286439        -1.923648
