19
Iteration:  2303charge 0 multiplicity 1
 C        -0.090011         0.489303         0.099119
 C         1.397297         0.154427        -0.040743
 O         1.911187        -1.328580         0.056982
 C         3.142947        -0.454817         0.085372
 C         2.424112         0.435023         1.092935
 C         2.838073         1.892022         1.109560
 O         2.829544         2.574920        -0.119812
 C         3.092286         1.843805        -1.230473
 C         2.602985         0.361481        -1.102632
 H        -0.532754         0.229706         1.117643
 H        -0.374847         1.518159         0.155144
 H        -0.574894        -0.208480        -0.637413
 H         4.187387        -0.980088         0.369021
 H         2.263846         0.042022         2.127693
 H         2.378472         2.468764         1.824983
 H         3.958548         1.798022         1.524065
 H         2.542812         2.253953        -2.019050
 H         4.140307         1.932082        -1.661644
 H         2.515791        -0.100864        -2.051957
