19
Iteration:  3937
 C        -0.007604         0.315417        -0.140522
 C         1.357950         0.086215         0.143905
 O         1.853851        -1.252465         0.224250
 C         3.067370        -0.414038         0.034139
 C         2.516459         0.552051         1.138265
 C         3.086815         1.920132         1.122881
 O         2.799523         2.611535        -0.148882
 C         3.018923         1.758284        -1.275558
 C         2.426708         0.362301        -1.065594
 H        -0.601090         0.006319         0.742843
 H        -0.110710         1.509538        -0.285082
 H        -0.525165        -0.158358        -0.982459
 H         4.078783        -0.970604         0.066577
 H         2.342482         0.192697         2.159121
 H         2.833299         2.663793         1.926273
 H         4.204181         1.741660         1.277197
 H         2.539487         2.389237        -2.069580
 H         4.041889         1.652905        -1.594620
 H         2.385942        -0.184557        -2.022645
