19
Iteration:  3051
 C        -0.101805         0.487984         0.065353
 C         1.396516         0.130962         0.040657
 O         1.915724        -1.272657         0.050649
 C         3.108344        -0.484911         0.093663
 C         2.525461         0.509079         1.151236
 C         2.948127         1.971767         1.148735
 O         2.705897         2.574240        -0.152483
 C         3.007168         1.710798        -1.299495
 C         2.662306         0.319376        -1.063842
 H        -0.627725        -0.044663         0.835590
 H        -0.125408         1.504359         0.231272
 H        -0.600185         0.301916        -0.859989
 H         4.081582        -0.991680         0.178738
 H         2.252276         0.136262         2.130196
 H         2.725406         2.544253         2.042803
 H         4.084209         1.786647         1.259781
 H         2.404762         2.082227        -2.203416
 H         4.019413         1.884814        -1.648497
 H         2.531510        -0.219873        -2.066576
