19
Iteration:  4524charge 0 multiplicity 1
 C        -0.047354         0.430858         0.081097
 C         1.414277         0.136705         0.018550
 O         1.929317        -1.354608         0.092821
 C         3.115182        -0.416762         0.116096
 C         2.420095         0.560125         1.091627
 C         2.984627         1.923307         1.116162
 O         2.785557         2.601448        -0.134909
 C         3.068266         1.739240        -1.318720
 C         2.454249         0.336618        -1.058896
 H        -0.443603         0.137026         1.113042
 H        -0.099678         1.456904        -0.224578
 H        -0.684185        -0.044003        -0.781537
 H         4.019898        -0.940844         0.110778
 H         2.249963         0.144980         2.110835
 H         2.490421         2.705834         1.836371
 H         4.080654         1.892036         1.526199
 H         2.659120         2.317572        -2.179775
 H         4.095941         1.643916        -1.490120
 H         2.526886        -0.235156        -1.992582
