19
Iteration:  2845charge 0 multiplicity 1
 C        -0.026127         0.428997         0.101213
 C         1.451183         0.072064         0.042899
 O         1.894809        -1.280015         0.036206
 C         3.111379        -0.487049         0.124574
 C         2.420856         0.499802         1.068694
 C         2.935555         1.952095         1.169315
 O         2.766333         2.635363        -0.177647
 C         3.053855         1.780876        -1.287287
 C         2.563744         0.383913        -1.069349
 H        -0.237438        -0.059210         1.128839
 H        -0.144969         1.528900         0.364025
 H        -0.654523        -0.030146        -0.768003
 H         3.982331        -1.259334         0.127657
 H         2.165314        -0.122227         1.919675
 H         2.373289         2.648917         1.715837
 H         4.032858         1.753427         1.483915
 H         2.645191         2.343524        -2.053265
 H         4.193684         1.704874        -1.627175
 H         2.187851        -0.206810        -1.926756
