19
Iteration:   268charge 0 multiplicity 1
 C        -0.039291         0.388705        -0.030071
 C         1.433586         0.121904         0.041445
 O         1.802931        -1.298224         0.105116
 C         3.067185        -0.548587         0.058226
 C         2.499944         0.419313         1.120528
 C         3.045096         1.859625         1.179470
 O         2.817485         2.694247        -0.080136
 C         2.993613         1.894290        -1.321148
 C         2.550717         0.399105        -1.069190
 H        -0.509502        -0.071217         0.885872
 H        -0.101138         1.493627         0.017340
 H        -0.493115         0.112778        -0.902984
 H         3.953395        -1.194206         0.095174
 H         2.277013        -0.046624         2.095722
 H         2.554414         2.476040         1.888628
 H         4.132567         1.893966         1.400041
 H         2.386970         2.370260        -2.127545
 H         4.090111         1.988544        -1.637245
 H         2.417853        -0.218875        -1.956688
