19
Iteration:  4666charge 0 multiplicity 1
 C        -0.056734         0.525014        -0.121514
 C         1.489739         0.192285         0.050973
 O         1.891238        -1.298609         0.224272
 C         3.124026        -0.543412         0.089943
 C         2.582573         0.443519         1.142397
 C         3.087461         1.953377         1.078648
 O         2.659821         2.569895        -0.093224
 C         2.961290         1.778326        -1.288249
 C         2.482793         0.329673        -1.065390
 H        -0.639871         0.285683         0.757825
 H        -0.055853         1.405735        -0.581604
 H        -0.381316        -0.058279        -1.013035
 H         4.062545        -1.038001         0.003901
 H         2.330245         0.124671         2.183967
 H         2.444942         2.512266         1.866692
 H         4.106161         2.054924         1.366261
 H         2.313362         2.264161        -2.059151
 H         4.111409         1.762421        -1.427837
 H         2.084373        -0.250292        -1.920680
