19
Iteration:  2132
 C        -0.014903         0.433868        -0.059748
 C         1.420620         0.149064         0.039145
 O         1.852745        -1.278734         0.175300
 C         3.122165        -0.525495         0.000611
 C         2.517665         0.430740         1.090645
 C         2.933318         1.885499         1.090245
 O         2.694492         2.603065        -0.096877
 C         3.143696         1.806535        -1.185052
 C         2.471403         0.459464        -1.060290
 H        -0.394054        -0.006625         0.856186
 H        -0.153833         1.461719        -0.292980
 H        -0.503190        -0.151649        -0.802864
 H         3.967454        -1.061209         0.076347
 H         2.572994        -0.181712         2.019233
 H         2.570501         2.482947         2.016922
 H         4.054163         2.009547         1.361726
 H         2.792036         2.346916        -2.121809
 H         4.239177         1.697352        -1.313760
 H         2.211147         0.090016        -2.129887
