19
Iteration:  3114
 C        -0.121326         0.356940        -0.053410
 C         1.381872         0.095488         0.019522
 O         1.878580        -1.348977         0.148559
 C         3.106456        -0.433216         0.088965
 C         2.584158         0.558053         1.097727
 C         3.071886         1.980903         1.136763
 O         2.816377         2.608716        -0.098474
 C         3.003128         1.748563        -1.256700
 C         2.429110         0.384869        -1.067968
 H        -0.649151        -0.038187         0.816420
 H        -0.357376         1.513561        -0.224307
 H        -0.512485        -0.194174        -0.905152
 H         4.064793        -0.816023         0.016417
 H         2.352369         0.193589         2.106221
 H         2.660067         2.771140         1.856390
 H         4.178190         2.078694         1.362602
 H         2.567810         2.387006        -2.088339
 H         4.082720         1.482333        -1.485459
 H         2.277184        -0.284093        -1.923824
