19
Iteration:  4014
 C        -0.056183         0.480704         0.073634
 C         1.417944         0.118666         0.005033
 O         1.927459        -1.263448         0.136613
 C         3.060979        -0.501204         0.129850
 C         2.533644         0.495086         1.092780
 C         2.922533         1.945929         1.058625
 O         2.725888         2.623458        -0.141939
 C         3.097009         1.706577        -1.297516
 C         2.538184         0.268474        -1.076879
 H        -0.493745         0.203214         0.997464
 H        -0.017355         1.677519         0.058425
 H        -0.571454         0.216046        -0.798653
 H         4.064667        -1.015441        -0.083596
 H         2.447467         0.162377         2.080555
 H         2.298945         2.496469         1.838737
 H         3.939605         2.064534         1.598799
 H         2.617526         2.267906        -2.112189
 H         4.139515         1.740900        -1.424214
 H         2.198457        -0.197782        -1.990638
