19
Iteration:  2072
 C        -0.026424         0.348008         0.043329
 C         1.429756         0.106383         0.017986
 O         1.873313        -1.266277         0.086920
 C         3.082011        -0.413696         0.089910
 C         2.341329         0.482777         1.040797
 C         2.987170         1.886414         1.150669
 O         2.855824         2.628916        -0.065724
 C         3.106845         1.804635        -1.267083
 C         2.500557         0.390107        -1.111782
 H        -0.587316         0.054296         0.937331
 H        -0.262045         1.441042         0.194854
 H        -0.410730        -0.080562        -0.924314
 H         4.191651        -0.917370         0.164649
 H         2.210818        -0.072344         1.965777
 H         2.267222         2.228082         1.852789
 H         4.111273         1.873099         1.390823
 H         2.425911         2.318123        -1.912981
 H         4.148472         1.871196        -1.724092
 H         2.431924        -0.218702        -1.942521
