19
Iteration:  4589
 C        -0.056310         0.400465         0.031630
 C         1.420841         0.093026         0.051264
 O         1.812893        -1.266608         0.141695
 C         3.217247        -0.399545         0.066601
 C         2.453264         0.534370         1.061280
 C         2.950913         1.925580         1.126852
 O         2.802288         2.607600        -0.186642
 C         3.059522         1.737156        -1.267001
 C         2.478127         0.379796        -1.018229
 H        -0.482769        -0.293270         0.819066
 H        -0.127348         1.427234         0.224373
 H        -0.589035        -0.025002        -0.868732
 H         4.069629        -1.014966        -0.052404
 H         2.345156         0.167224         2.109498
 H         2.489702         2.557380         2.026405
 H         4.067676         1.807213         1.395110
 H         2.694476         2.208112        -2.215236
 H         4.138526         1.608972        -1.650616
 H         2.510300        -0.391522        -1.790657
