19
Iteration:  4124
 C        -0.136997         0.410151        -0.107356
 C         1.361242         0.119585         0.074710
 O         1.889255        -1.336382         0.161404
 C         3.097743        -0.448993         0.105211
 C         2.537035         0.555180         1.121899
 C         3.106246         1.955211         1.148686
 O         2.850396         2.648156        -0.149744
 C         2.928175         1.784981        -1.295114
 C         2.529192         0.299400        -1.008669
 H        -0.669814         0.012305         0.668115
 H        -0.279536         1.475797        -0.330758
 H        -0.485813        -0.067217        -0.933110
 H         4.075974        -1.031606         0.196464
 H         2.457311         0.066996         2.041359
 H         2.519006         2.557494         1.886131
 H         4.190775         1.840592         1.542284
 H         2.277173         2.177444        -2.102134
 H         3.967162         1.693286        -1.811643
 H         2.291467        -0.265569        -1.903178
