19
Iteration:  1194charge 0 multiplicity 1
 C        -0.089213         0.422315        -0.149665
 C         1.398565         0.137790         0.003217
 O         1.858496        -1.212606         0.096800
 C         3.132610        -0.534779        -0.011170
 C         2.615770         0.488550         1.091853
 C         3.068959         1.915641         1.230539
 O         2.780309         2.588614        -0.009439
 C         2.945256         1.749737        -1.190618
 C         2.473958         0.341180        -1.085227
 H        -0.658366         0.070972         0.677324
 H        -0.284439         1.682908        -0.102309
 H        -0.544262        -0.006314        -1.030316
 H         3.947338        -1.144788         0.098395
 H         2.757944         0.059696         2.104925
 H         2.483013         2.423064         2.015139
 H         4.132752         2.280261         1.476253
 H         2.350929         2.290101        -1.933504
 H         3.928701         1.801426        -1.406872
 H         2.361969        -0.169441        -2.054515
