19
Iteration:  2030
 C        -0.085511         0.432701        -0.140876
 C         1.395037         0.149898         0.088615
 O         1.905229        -1.351090         0.113034
 C         3.101020        -0.499517         0.039718
 C         2.578261         0.469566         1.068790
 C         2.982490         1.927689         1.208653
 O         2.912091         2.656028        -0.044792
 C         2.927671         1.777126        -1.288000
 C         2.481198         0.360144        -1.017106
 H        -0.727232        -0.084632         0.584917
 H        -0.218828         1.448226        -0.158230
 H        -0.207778         0.233779        -1.212373
 H         4.034265        -0.938876         0.184737
 H         2.450798         0.086814         2.106981
 H         2.157539         2.539979         1.755772
 H         4.028034         1.949584         1.618587
 H         2.032438         2.150358        -1.847886
 H         3.883852         1.881944        -1.759174
 H         2.183823        -0.009086        -1.969757
