19
Iteration:  1074
 C        -0.125349         0.501812         0.060691
 C         1.356384         0.044537         0.034867
 O         1.945129        -1.335872         0.036029
 C         3.138704        -0.500517        -0.032395
 C         2.528247         0.462998         1.059680
 C         2.933314         1.946319         1.183541
 O         2.801132         2.659605        -0.075908
 C         3.142080         1.767495        -1.175828
 C         2.444337         0.372277        -1.074132
 H        -0.637692         0.398109         0.922589
 H        -0.163588         1.635821        -0.161503
 H        -0.634896         0.006665        -0.683371
 H         3.965514        -1.197546        -0.085632
 H         2.433109        -0.092551         2.038394
 H         2.066793         2.407920         1.633421
 H         3.859761         2.184410         1.680730
 H         2.812926         2.489867        -1.969995
 H         4.205286         1.564667        -1.475254
 H         2.390198        -0.167285        -2.031027
