19
Iteration:   365
 C         0.021671         0.450908         0.069522
 C         1.475115         0.103784         0.066927
 O         1.764511        -1.283270         0.053762
 C         3.118676        -0.591498        -0.092549
 C         2.522561         0.483182         1.063807
 C         2.935164         1.977347         1.205304
 O         2.797306         2.574677        -0.087777
 C         3.021836         1.804928        -1.178890
 C         2.541539         0.393800        -1.091954
 H        -0.354617         0.256562         1.116339
 H        -0.043017         1.455676        -0.206855
 H        -0.521454        -0.149527        -0.747323
 H         4.023263        -1.197211        -0.012542
 H         2.374153         0.091586         2.062809
 H         2.229703         2.488655         1.815404
 H         3.946777         2.272444         1.507824
 H         2.540722         2.390805        -2.027154
 H         4.034023         1.816391        -1.506031
 H         2.387836        -0.010227        -2.057311
