19
Iteration:   116
 C        -0.043331         0.442875        -0.130852
 C         1.400355         0.145172         0.061262
 O         1.800068        -1.243870         0.127251
 C         3.117919        -0.565594        -0.003673
 C         2.679213         0.455937         1.112268
 C         3.069575         1.895384         1.182676
 O         2.746194         2.643334        -0.082135
 C         2.939044         1.772503        -1.197786
 C         2.516857         0.369383        -1.026564
 H        -0.710427        -0.140454         0.576212
 H        -0.300898         1.550809         0.118335
 H        -0.455411         0.233311        -1.114803
 H         3.979499        -1.181967        -0.043310
 H         2.457824        -0.157907         2.003001
 H         2.504249         2.467382         1.887250
 H         4.120174         2.183441         1.347385
 H         2.439100         2.239046        -2.017212
 H         4.012270         1.776868        -1.494477
 H         2.304697         0.001916        -2.039025
