19
Iteration:  2451
 C        -0.021601         0.410812        -0.016839
 C         1.452485         0.163058         0.002957
 O         1.887654        -1.294712         0.103392
 C         3.190861        -0.485238        -0.035532
 C         2.474582         0.506075         1.092285
 C         2.887741         1.949303         1.206228
 O         2.877472         2.599293        -0.086971
 C         2.994441         1.747009        -1.220918
 C         2.449962         0.365015        -1.061010
 H        -0.333049         0.142443         0.991788
 H        -0.421554         1.489666        -0.006605
 H        -0.541567        -0.141357        -0.787338
 H         4.093471        -0.893667        -0.147080
 H         2.287461         0.034871         2.037863
 H         2.064081         2.504032         1.782293
 H         3.863262         1.808549         1.704411
 H         2.517221         2.408241        -2.075639
 H         4.086039         1.532764        -1.370590
 H         2.254452        -0.079684        -2.090860
