19
Iteration:  1986
 C        -0.136883         0.477442         0.015969
 C         1.364074         0.168317         0.006754
 O         1.928264        -1.368158         0.016737
 C         3.090097        -0.480474         0.140825
 C         2.455141         0.525428         1.040849
 C         3.029399         1.889435         1.123714
 O         2.810559         2.607337        -0.060831
 C         2.985599         1.817966        -1.233193
 C         2.614522         0.331784        -1.077889
 H        -0.361499        -0.015276         0.969141
 H        -0.286576         1.421771        -0.263538
 H        -0.627555        -0.059265        -0.829823
 H         3.945021        -0.847693         0.433069
 H         2.470007         0.123968         2.097613
 H         2.484582         2.563849         1.965144
 H         4.088660         1.808556         1.373408
 H         2.268220         2.364215        -1.935123
 H         4.037227         1.903255        -1.465967
 H         2.585276        -0.299537        -1.939210
