19
Iteration:  4408charge 0 multiplicity 1
 C        -0.024274         0.432713         0.093065
 C         1.417652         0.166015        -0.007973
 O         1.814889        -1.333042         0.085668
 C         3.153332        -0.570926         0.132666
 C         2.488438         0.526732         1.075030
 C         2.948383         1.965679         1.080143
 O         2.778204         2.643656        -0.173247
 C         3.066557         1.794690        -1.272393
 C         2.551250         0.319212        -1.030960
 H        -0.319396        -0.044077         0.992834
 H        -0.271216         1.509480        -0.004952
 H        -0.623443         0.133689        -0.679331
 H         4.081703        -1.145416         0.422153
 H         2.289452         0.094942         2.048761
 H         2.456424         2.541722         1.811922
 H         4.073597         2.078752         1.448706
 H         2.381097         2.111142        -2.065263
 H         4.072116         1.977623        -1.574895
 H         2.400301        -0.286580        -1.931159
