19
Iteration:  3375
 C        -0.196288         0.407529         0.040464
 C         1.338725         0.152332        -0.015166
 O         1.913538        -1.315737         0.159120
 C         3.099492        -0.487911         0.106686
 C         2.534659         0.453382         1.067304
 C         3.041266         1.913133         1.112563
 O         2.736724         2.640265        -0.182514
 C         3.071353         1.767357        -1.284331
 C         2.601767         0.419403        -1.035975
 H        -0.477840         0.292372         1.061099
 H        -0.251184         1.564896        -0.268670
 H        -0.761999        -0.252249        -0.540383
 H         4.151867        -1.107403         0.348050
 H         2.281465         0.145960         2.102812
 H         2.674388         2.379943         1.989882
 H         4.032107         1.891124         1.316205
 H         2.512640         2.170361        -2.094287
 H         4.161707         1.826774        -1.553304
 H         2.625115        -0.055428        -1.981594
