19
Iteration:  3525charge 0 multiplicity 1
 C        -0.004593         0.331256         0.043512
 C         1.415643         0.085959         0.070695
 O         1.889777        -1.297724         0.195406
 C         3.040426        -0.455727         0.015374
 C         2.473916         0.576411         1.053556
 C         3.010265         2.004392         1.121955
 O         2.793944         2.622217        -0.120344
 C         3.144825         1.768219        -1.249913
 C         2.350523         0.318143        -1.130588
 H        -0.483208         0.481450         1.008467
 H         0.073209         1.416025        -0.521845
 H        -0.496271        -0.356450        -0.633444
 H         3.953334        -0.951845        -0.060782
 H         2.168358        -0.057449         1.951727
 H         2.378064         2.503515         1.935620
 H         4.145062         2.036474         1.374456
 H         2.862275         2.345279        -2.150401
 H         4.311827         1.681617        -1.236846
 H         2.219130        -0.282567        -2.052150
