19
Iteration:  2187charge 0 multiplicity 1
 C         0.052677         0.508803        -0.067500
 C         1.436601         0.133891         0.002401
 O         1.864463        -1.385847         0.076516
 C         3.120592        -0.584283         0.208623
 C         2.438693         0.464617         1.153518
 C         3.006884         1.825346         1.083025
 O         2.773972         2.613487        -0.038988
 C         2.858430         1.911974        -1.373678
 C         2.591727         0.426784        -1.044798
 H        -0.494516         0.272200         0.824750
 H         0.101831         1.536746         0.142064
 H        -0.306839         0.090481        -0.956260
 H         4.019563        -1.039841         0.240114
 H         2.194095         0.108628         2.163579
 H         2.371111         2.478370         1.896042
 H         4.152531         1.888994         1.354539
 H         2.286209         2.586619        -2.137080
 H         3.929153         1.916091        -1.726666
 H         2.708563        -0.181690        -2.031363
