19
Iteration:  2376
 C        -0.144252         0.414347        -0.166988
 C         1.372574         0.128785        -0.017152
 O         1.831243        -1.290496         0.148522
 C         3.130206        -0.461786         0.075005
 C         2.630274         0.421144         1.210431
 C         3.127676         1.953659         1.083170
 O         2.669746         2.540877        -0.058851
 C         3.002125         1.838057        -1.188846
 C         2.588776         0.379568        -1.071769
 H        -0.655939         0.120052         0.687594
 H        -0.289562         1.525851         0.020217
 H        -0.550675         0.033759        -1.095428
 H         4.034258        -1.008831         0.087325
 H         2.475589        -0.134797         2.131701
 H         2.652012         2.551323         1.982287
 H         4.172406         1.999341         1.102657
 H         2.473763         2.486880        -1.989015
 H         4.068090         1.817416        -1.414698
 H         2.359104         0.063802        -2.120925
