19
Iteration:  1381charge 0 multiplicity 1
 C         0.015219         0.384306        -0.012450
 C         1.433445         0.150747        -0.055082
 O         1.807321        -1.311636         0.003161
 C         3.136730        -0.527118         0.101505
 C         2.460180         0.515892         1.140505
 C         3.038630         1.948786         1.148601
 O         2.750320         2.612985        -0.073302
 C         3.032863         1.815118        -1.230959
 C         2.479819         0.389221        -1.048505
 H        -0.242227         0.154940         0.920739
 H        -0.053568         1.513882        -0.101934
 H        -0.490234        -0.185228        -0.642409
 H         4.029997        -0.966194        -0.012556
 H         2.296490        -0.020439         2.063848
 H         2.625177         2.449080         2.040412
 H         4.123989         1.944401         1.312128
 H         2.570711         2.287060        -2.064576
 H         4.149834         1.639981        -1.129374
 H         2.146276        -0.209587        -1.884898
