19
Iteration:  1000charge 0 multiplicity 1
 C        -0.022601         0.350071        -0.156119
 C         1.422153         0.110280         0.098843
 O         1.839430        -1.308665         0.137655
 C         3.066018        -0.539509         0.021227
 C         2.490545         0.520865         1.114591
 C         3.129230         1.864411         1.115104
 O         2.769113         2.638526        -0.049924
 C         2.980216         1.850398        -1.223576
 C         2.464829         0.426058        -1.051086
 H        -0.754548        -0.098266         0.544576
 H        -0.109471         1.487092         0.000661
 H        -0.287436         0.122623        -1.154494
 H         4.154096        -0.917068         0.068437
 H         2.295019         0.180113         2.119757
 H         2.783773         2.486587         1.927176
 H         4.234131         1.774822         1.141872
 H         2.648255         2.525856        -1.956133
 H         4.108159         1.738920        -1.320095
 H         2.068844        -0.020757        -1.891257
