19
Iteration:  2014
 C         0.051522         0.415518        -0.107064
 C         1.431520         0.055350         0.011374
 O         1.832893        -1.294340         0.148814
 C         3.146386        -0.453192         0.089667
 C         2.450346         0.462924         1.156550
 C         2.976170         1.903478         1.145264
 O         2.910035         2.579140        -0.070315
 C         2.866213         1.879574        -1.276951
 C         2.466374         0.407712        -1.089579
 H        -0.491168        -0.194519         0.639244
 H         0.002459         1.646868        -0.132059
 H        -0.406124         0.089657        -1.057156
 H         4.208951        -1.129308         0.040148
 H         2.266104         0.001874         2.127017
 H         2.501113         2.509733         1.862801
 H         4.002716         1.961808         1.606893
 H         2.268527         2.504469        -1.926774
 H         3.946930         1.837130        -1.667832
 H         2.398599        -0.290527        -1.987671
