19
Iteration:   191charge 0 multiplicity 1
 C        -0.029256         0.431242         0.140244
 C         1.407090         0.165786        -0.061576
 O         1.769213        -1.266690        -0.025086
 C         3.095701        -0.582538         0.089338
 C         2.512773         0.464488         1.134275
 C         2.988049         1.924937         1.230029
 O         2.756197         2.701226        -0.088942
 C         3.068021         1.764542        -1.290262
 C         2.665470         0.334289        -1.114773
 H        -0.405953         0.120866         1.123313
 H        -0.406689         1.383281        -0.114376
 H        -0.559262        -0.195017        -0.541779
 H         3.987536        -1.314787         0.154555
 H         2.148592        -0.058085         2.078149
 H         2.529492         2.624527         1.911832
 H         4.048123         2.046187         1.413038
 H         2.310470         2.173979        -2.024134
 H         4.095062         1.915346        -1.645287
 H         2.598462        -0.126657        -2.154199
