19
Iteration:  4877charge 0 multiplicity 1
 C        -0.002761         0.524772        -0.027180
 C         1.448239         0.209585         0.078786
 O         1.881395        -1.331647         0.209191
 C         3.158356        -0.550733         0.061917
 C         2.517772         0.501907         1.105626
 C         2.998726         1.939925         1.142798
 O         2.648073         2.579193        -0.163480
 C         3.036482         1.742911        -1.294949
 C         2.527951         0.356824        -1.100246
 H        -0.519051         0.500707         0.928585
 H        -0.233202         1.462624        -0.628497
 H        -0.512781        -0.242935        -0.624074
 H         4.079419        -1.178039         0.122209
 H         2.447137        -0.040100         2.034027
 H         2.372490         2.674889         1.799490
 H         3.991339         1.923098         1.382547
 H         2.714635         2.327053        -2.151161
 H         4.094669         1.662011        -1.330170
 H         2.121809        -0.202212        -1.954643
