19
Iteration:  1966
 C        -0.078557         0.396547         0.024068
 C         1.426253         0.107532        -0.002446
 O         1.850884        -1.303487         0.028646
 C         3.128136        -0.530647         0.095844
 C         2.468817         0.467902         1.137366
 C         3.029405         1.912319         1.148806
 O         2.706680         2.655242        -0.143552
 C         3.129758         1.806490        -1.220900
 C         2.541026         0.438506        -1.036299
 H        -0.527873         0.183181         1.074209
 H        -0.194940         1.412701        -0.290417
 H        -0.754984        -0.178937        -0.684229
 H         4.009841        -1.033525        -0.007309
 H         2.096034         0.003302         2.097906
 H         2.627298         2.493027         2.051041
 H         4.086297         1.955097         1.238547
 H         2.650726         2.259334        -2.169491
 H         4.239054         1.750055        -1.311652
 H         2.354820        -0.103384        -2.011925
