19
Iteration:   602charge 0 multiplicity 1
 C        -0.014350         0.394563         0.008307
 C         1.393959         0.161060        -0.036364
 O         1.857522        -1.214483         0.059233
 C         3.088288        -0.531156         0.122243
 C         2.482243         0.436350         1.129266
 C         3.032388         1.906479         1.126443
 O         2.756675         2.579563        -0.067242
 C         3.015421         1.800812        -1.266124
 C         2.567612         0.425717        -1.083286
 H        -0.416474         0.032921         1.011299
 H        -0.266290         1.385962        -0.076976
 H        -0.715058        -0.207048        -0.721198
 H         3.988302        -1.104535         0.160908
 H         2.140951         0.028034         2.041831
 H         2.710435         2.550897         1.923747
 H         4.120251         1.819497         1.171861
 H         2.400490         2.235891        -1.942651
 H         4.125056         1.957314        -1.503028
 H         2.544309        -0.112113        -2.036742
