19
Iteration:  2192
 C         0.018973         0.502220        -0.046095
 C         1.417958         0.109324        -0.001272
 O         1.873294        -1.375271         0.070242
 C         3.114387        -0.597024         0.228238
 C         2.447064         0.446195         1.145224
 C         3.015920         1.869650         1.120089
 O         2.776184         2.626251        -0.025579
 C         2.872522         1.939899        -1.430106
 C         2.601462         0.410065        -1.083161
 H        -0.537519         0.142250         0.872713
 H        -0.065882         1.696396         0.082736
 H        -0.370559         0.104730        -1.054100
 H         4.120293        -1.248549         0.498999
 H         2.299109         0.122194         2.187894
 H         2.545817         2.451319         1.780641
 H         4.079900         1.737659         1.315347
 H         2.271242         2.511738        -2.057581
 H         3.941621         1.970525        -1.631163
 H         2.708739        -0.121079        -1.997358
