19
Iteration:  3781
 C        -0.113395         0.392566        -0.031953
 C         1.333480         0.106718        -0.007418
 O         1.897627        -1.235097         0.136173
 C         3.111889        -0.477473         0.177389
 C         2.496035         0.470918         1.149815
 C         3.093676         1.946912         1.031638
 O         2.769646         2.609365        -0.130767
 C         2.988370         1.722797        -1.295984
 C         2.580006         0.402280        -1.040104
 H        -0.603585         0.106598         0.960054
 H        -0.374275         1.385421         0.027526
 H        -0.637478        -0.006047        -0.996116
 H         4.128827        -0.804825         0.199250
 H         2.187961         0.171745         2.207915
 H         2.653692         2.473264         1.919714
 H         4.330524         1.886310         1.182835
 H         2.378381         2.192542        -2.071253
 H         4.185386         1.667551        -1.478897
 H         2.439720        -0.284754        -1.931130
