19
Iteration:  4170
 C        -0.133794         0.369260         0.053586
 C         1.381020         0.128315         0.072751
 O         1.854162        -1.317724         0.152542
 C         3.090800        -0.510466         0.100156
 C         2.490193         0.515889         1.088623
 C         3.005551         1.965397         1.084318
 O         2.828990         2.674264        -0.164315
 C         3.107821         1.781219        -1.257297
 C         2.515763         0.364023        -1.088333
 H        -0.617529        -0.046052         0.886350
 H        -0.234312         1.450930        -0.153965
 H        -0.569335        -0.087577        -0.783813
 H         4.135150        -0.936636         0.193252
 H         2.258769         0.058075         2.030767
 H         2.419500         2.416565         1.892432
 H         4.151547         1.927596         1.332655
 H         2.529274         2.088336        -2.152502
 H         4.184999         1.716952        -1.712905
 H         2.568779        -0.101904        -2.078826
