19
Iteration:  3984charge 0 multiplicity 1
 C         0.015996         0.401698         0.061974
 C         1.433463         0.104926        -0.012894
 O         1.814556        -1.277560         0.111093
 C         3.111234        -0.462857         0.157112
 C         2.413542         0.504826         1.145411
 C         2.998215         1.980245         1.086387
 O         2.806959         2.587985        -0.162074
 C         2.999401         1.748091        -1.330424
 C         2.597753         0.339543        -1.023346
 H        -0.431811        -0.036830         0.970771
 H        -0.215586         1.568932        -0.083071
 H        -0.610793         0.012612        -0.755674
 H         4.083773        -0.975087         0.022618
 H         2.228609         0.032897         2.065811
 H         2.608135         2.688431         1.738751
 H         4.065266         1.981071         1.505991
 H         2.320538         2.209045        -2.077930
 H         4.063330         1.841349        -1.717447
 H         2.356188        -0.137898        -1.956444
