19
Iteration:  2406charge 0 multiplicity 1
 C         0.011814         0.360167        -0.037395
 C         1.441834         0.169395        -0.013836
 O         1.883301        -1.246320         0.076089
 C         3.094763        -0.507342         0.126816
 C         2.399023         0.434038         1.151419
 C         3.045810         1.849372         1.086188
 O         2.745424         2.693324        -0.081351
 C         2.993478         1.811533        -1.216130
 C         2.549269         0.388374        -1.055212
 H        -0.356254         0.046471         0.964216
 H        -0.200812         1.470611        -0.222841
 H        -0.439035        -0.120225        -0.904889
 H         3.964804        -1.057698         0.208679
 H         2.104657        -0.071287         2.065000
 H         2.829968         2.481325         2.023955
 H         4.119088         1.588590         0.888390
 H         2.339642         2.325789        -2.035946
 H         4.073771         1.729913        -1.423673
 H         2.317898        -0.055042        -2.070341
