19
Iteration:   945charge 0 multiplicity 1
 C         0.057370         0.479464         0.030128
 C         1.471981         0.141943         0.002383
 O         1.806426        -1.312492         0.012217
 C         3.066366        -0.528888         0.121782
 C         2.453824         0.424621         1.169069
 C         3.009143         1.895204         1.142080
 O         2.729144         2.630415        -0.102336
 C         2.944555         1.826325        -1.282263
 C         2.665718         0.382222        -1.096561
 H        -0.291218         0.158422         1.023000
 H        -0.193177         1.632213        -0.103376
 H        -0.480896        -0.018530        -0.742979
 H         4.089730        -1.110713         0.151715
 H         2.161414        -0.038140         2.130031
 H         2.479267         2.471648         1.916271
 H         4.045354         1.941594         1.491511
 H         2.394530         2.330814        -2.085388
 H         4.091687         1.844755        -1.555717
 H         2.351290        -0.199203        -1.919002
