19
Iteration:  2661
 C        -0.068951         0.352801         0.043876
 C         1.416576         0.147629        -0.002482
 O         1.843066        -1.341837         0.097834
 C         3.077759        -0.475655        -0.044279
 C         2.566228         0.561826         1.101996
 C         2.963420         2.006148         1.146256
 O         2.747527         2.645285        -0.089535
 C         3.172176         1.728134        -1.185414
 C         2.461130         0.339666        -1.096002
 H        -0.485842        -0.114492         0.931530
 H        -0.390892         1.348239         0.215688
 H        -0.583931         0.002275        -0.859913
 H         4.059278        -0.953268        -0.141946
 H         2.360375         0.053202         2.067922
 H         2.337381         2.680363         1.852953
 H         4.050927         1.976187         1.363295
 H         2.691082         2.453009        -1.964071
 H         4.295249         1.617807        -1.241996
 H         2.401617        -0.293289        -2.017911
