19
Iteration:  3866charge 0 multiplicity 1
 C         0.016260         0.554328         0.063485
 C         1.432661         0.138815        -0.017508
 O         1.909297        -1.341426         0.136641
 C         3.108830        -0.492734         0.116682
 C         2.423144         0.489583         1.094922
 C         2.918262         1.929946         1.091672
 O         2.733568         2.580068        -0.170846
 C         3.046641         1.727581        -1.304701
 C         2.552804         0.373657        -1.049235
 H        -0.258461         0.121859         1.052122
 H        -0.122164         1.620862        -0.018336
 H        -0.656302         0.051298        -0.623357
 H         4.062478        -0.974715         0.158554
 H         2.367213         0.036208         2.148437
 H         2.333434         2.569629         1.916489
 H         4.013018         2.006964         1.432530
 H         2.716905         2.192494        -2.215880
 H         4.067484         1.684301        -1.370675
 H         2.451219        -0.232623        -1.973421
