19
Iteration:  1925
 C        -0.179007         0.474076        -0.038978
 C         1.349581         0.165103        -0.037972
 O         1.910680        -1.298026         0.106656
 C         3.123156        -0.551250        -0.025588
 C         2.673863         0.462953         1.067295
 C         2.985720         1.995510         1.220480
 O         2.678030         2.593206        -0.099971
 C         3.125405         1.755692        -1.193043
 C         2.512039         0.349914        -1.039500
 H        -0.667103         0.278194         0.938241
 H        -0.275612         1.572215         0.022186
 H        -0.758964        -0.120347        -0.767016
 H         4.156739        -1.194492         0.072796
 H         2.550012        -0.042453         2.045174
 H         2.314668         2.466340         1.893507
 H         4.016654         2.272789         1.714395
 H         2.795741         2.188272        -2.146087
 H         4.224074         1.700431        -1.324694
 H         2.380103        -0.117775        -2.083202
