19
Iteration:  2747charge 0 multiplicity 1
 C        -0.052427         0.478848        -0.054636
 C         1.459954         0.134211         0.050718
 O         1.896638        -1.331612         0.137444
 C         3.157956        -0.456975         0.079483
 C         2.426624         0.501547         1.105984
 C         3.047154         1.899984         1.155684
 O         2.773898         2.531569        -0.097221
 C         2.910057         1.843776        -1.301130
 C         2.562527         0.372891        -1.060805
 H        -0.510743         0.148024         0.914240
 H        -0.202129         1.578153        -0.155901
 H        -0.418183        -0.147795        -0.907933
 H         4.199523        -1.034909         0.331550
 H         2.196641         0.048736         2.075125
 H         2.576263         2.598955         1.881418
 H         4.141295         1.853827         1.467023
 H         2.200501         2.205942        -2.033730
 H         3.769401         1.954741        -1.963265
 H         2.425198        -0.148120        -2.044946
