19
Iteration:  4297charge 0 multiplicity 1
 C        -0.083943         0.428579        -0.042141
 C         1.432655         0.122363         0.009881
 O         1.869186        -1.260951         0.113489
 C         3.160760        -0.459822         0.142383
 C         2.465411         0.543118         1.105879
 C         3.056868         1.927295         1.111499
 O         2.745351         2.575014        -0.085753
 C         2.944511         1.730426        -1.320883
 C         2.581078         0.351348        -1.070207
 H        -0.460381         0.242314         0.989028
 H        -0.200865         1.603011        -0.094423
 H        -0.530191        -0.085149        -0.905447
 H         3.976445        -1.195015         0.335578
 H         2.147033         0.305145         2.175665
 H         2.923128         2.528582         2.017141
 H         4.181905         1.789576         1.249143
 H         2.180826         2.062627        -2.031201
 H         4.060612         1.808627        -1.514125
 H         2.446041        -0.252735        -1.996192
