19
Iteration:  4062
 C        -0.073195         0.434286         0.021145
 C         1.458207         0.136370         0.048037
 O         1.863723        -1.218581         0.150586
 C         3.121844        -0.534777         0.049136
 C         2.535170         0.525399         1.097784
 C         3.020398         1.930968         1.104995
 O         2.661148         2.540489        -0.201259
 C         3.068072         1.723426        -1.250773
 C         2.540679         0.383242        -1.004267
 H        -0.588015         0.268666         1.043525
 H        -0.248733         1.631655        -0.079191
 H        -0.590628         0.005007        -0.958309
 H         3.972314        -1.217404         0.201210
 H         2.306221        -0.031506         2.050097
 H         2.562282         2.572023         1.828774
 H         4.167372         2.184014         1.329936
 H         2.649898         2.161482        -2.158375
 H         4.074415         1.722739        -1.314900
 H         2.486256        -0.085193        -2.017839
