19
Iteration:  4712
 C        -0.000707         0.445160         0.082561
 C         1.406865         0.106267         0.053804
 O         1.844876        -1.265531         0.112651
 C         3.104195        -0.445637         0.130061
 C         2.453408         0.454225         1.139655
 C         2.936808         1.898860         1.125244
 O         2.757143         2.600059        -0.227731
 C         3.113247         1.835418        -1.334697
 C         2.539634         0.327562        -1.087850
 H        -0.221256         0.028211         1.085148
 H        -0.036452         1.452211        -0.110148
 H        -0.687231        -0.033822        -0.621436
 H         3.988000        -1.042961         0.319329
 H         2.183984         0.001066         2.103675
 H         2.328780         2.571948         1.879169
 H         4.010790         2.010455         1.432856
 H         2.603781         2.268333        -2.198158
 H         4.274800         1.673368        -1.381446
 H         2.524405        -0.191045        -2.070782
