19
Iteration:  3239
 C         0.041618         0.405709         0.034436
 C         1.446979         0.191846        -0.050548
 O         1.819706        -1.325009         0.172196
 C         3.087651        -0.576452         0.178558
 C         2.518123         0.526622         1.045653
 C         3.037018         1.924513         1.096442
 O         2.669538         2.641634        -0.131930
 C         3.044979         1.807370        -1.275232
 C         2.522658         0.360772        -1.059696
 H        -0.525993        -0.265105         0.757152
 H        -0.097552         1.420413         0.279145
 H        -0.329953         0.241621        -1.038671
 H         4.018092        -1.235182         0.215116
 H         2.213739         0.200529         2.063248
 H         2.608857         2.560697         1.954495
 H         4.152424         1.994418         1.136185
 H         2.550257         2.233269        -2.217620
 H         4.155411         1.801634        -1.477873
 H         2.279745        -0.151079        -2.040542
