19
Iteration:  2507
 C        -0.011347         0.342262         0.082316
 C         1.415498         0.166967        -0.004227
 O         1.883698        -1.335128         0.007372
 C         3.042973        -0.500932         0.125460
 C         2.436961         0.504814         1.064002
 C         3.007230         1.934826         1.103924
 O         2.804327         2.660895        -0.103326
 C         3.059741         1.792805        -1.182404
 C         2.519820         0.371642        -1.089414
 H        -0.367254        -0.203575         0.937270
 H        -0.193594         1.446331         0.084853
 H        -0.624617         0.001335        -0.744534
 H         3.985622        -0.812235         0.269749
 H         2.139260         0.041581         2.013707
 H         2.450454         2.579582         1.875004
 H         4.017574         1.864039         1.558138
 H         2.544010         2.383542        -2.086743
 H         4.161781         1.700118        -1.517040
 H         2.475137        -0.011014        -2.147077
