19
Iteration:  1877charge 0 multiplicity 1
 C        -0.035661         0.480539        -0.073665
 C         1.406415         0.147130        -0.037524
 O         1.919049        -1.314556         0.065965
 C         3.107864        -0.514799         0.195342
 C         2.443246         0.431130         1.165381
 C         3.036226         1.863529         1.119322
 O         2.815687         2.620245        -0.081294
 C         2.894914         1.839910        -1.288599
 C         2.598532         0.369520        -1.074694
 H        -0.533674        -0.069402         0.815408
 H        -0.154365         1.524767         0.206514
 H        -0.637886         0.182974        -0.987527
 H         3.970345        -0.997452         0.258107
 H         2.196842         0.153011         2.251584
 H         2.688107         2.600198         1.960142
 H         4.085231         1.749985         1.357369
 H         2.074168         2.325621        -1.978632
 H         3.880746         1.995983        -1.792235
 H         2.507841        -0.211808        -2.005984
