19
Iteration:    99
 C         0.015233         0.452575        -0.003998
 C         1.493560         0.249751         0.036674
 O         1.791959        -1.257189         0.092710
 C         3.131598        -0.475737         0.089264
 C         2.483168         0.435397         1.121561
 C         3.033529         1.836786         1.143856
 O         2.739981         2.539659        -0.042349
 C         2.997322         1.832148        -1.335827
 C         2.514969         0.375085        -1.112543
 H        -0.402832        -0.229662         0.729170
 H        -0.361735         1.499524        -0.015731
 H        -0.252547         0.075161        -0.979366
 H         4.087557        -1.069346         0.075109
 H         2.361828         0.099829         2.129328
 H         2.588266         2.394475         2.010132
 H         4.121210         1.772529         1.401912
 H         2.237256         2.340592        -1.983042
 H         4.066249         2.006489        -1.618586
 H         2.255313        -0.328210        -1.913578
