19
Iteration:   528charge 0 multiplicity 1
 C         0.058838         0.449708         0.085864
 C         1.443882         0.135293        -0.044681
 O         1.826664        -1.273713         0.017936
 C         3.077744        -0.491813         0.053363
 C         2.498635         0.520959         1.108577
 C         2.937641         1.880088         1.151173
 O         2.780168         2.575783        -0.110058
 C         3.004944         1.766517        -1.196875
 C         2.590692         0.390629        -1.098413
 H        -0.325367         0.096122         1.089961
 H        -0.156566         1.456277        -0.013230
 H        -0.677139         0.018014        -0.610193
 H         3.861222        -1.224476         0.203515
 H         2.385493         0.095648         2.077484
 H         2.281675         2.371069         1.854059
 H         3.992818         2.103437         1.549292
 H         2.428147         2.250665        -2.014726
 H         4.062517         1.795193        -1.458892
 H         2.338257        -0.060789        -2.010436
