19
Iteration:  1901charge 0 multiplicity 1
 C         0.057127         0.485746         0.021200
 C         1.428607         0.089328         0.034440
 O         1.859077        -1.341560         0.070843
 C         3.151521        -0.467859         0.089682
 C         2.438659         0.455808         1.071227
 C         2.963765         1.895399         1.114221
 O         2.765439         2.602904        -0.089868
 C         3.005778         1.829832        -1.245249
 C         2.499189         0.380893        -1.059465
 H        -0.673628         0.139227         0.841290
 H         0.026956         1.523265         0.069060
 H        -0.300849         0.024012        -0.935799
 H         4.144690        -0.919701         0.168206
 H         2.063894         0.182032         2.098503
 H         2.488106         2.550706         1.891571
 H         4.031166         1.832191         1.475637
 H         2.476738         2.380689        -2.115030
 H         4.075068         1.799714        -1.541611
 H         2.385254        -0.176228        -2.052633
