19
Iteration:  1107
 C         0.017083         0.446264         0.008004
 C         1.453037         0.131870         0.025479
 O         1.828843        -1.224714         0.104400
 C         3.136809        -0.523051        -0.013985
 C         2.506237         0.413181         1.086988
 C         2.971118         1.882307         1.164918
 O         2.747069         2.611566        -0.081857
 C         3.084647         1.830234        -1.229244
 C         2.442213         0.403324        -1.069581
 H        -0.395933        -0.085069         0.742258
 H        -0.282958         1.547243        -0.158666
 H        -0.271361        -0.048852        -0.852268
 H         3.988428        -1.173406        -0.074483
 H         2.261028        -0.067679         2.077289
 H         2.320693         2.286026         1.931470
 H         3.931072         2.079400         1.617948
 H         2.601143         2.398873        -2.079626
 H         4.302952         1.614736        -1.371021
 H         2.241465        -0.194504        -1.956281
