19
Iteration:  3745
 C        -0.083995         0.372009        -0.079756
 C         1.418881         0.128888         0.009238
 O         1.859265        -1.320008         0.213492
 C         3.086472        -0.492597         0.088984
 C         2.502433         0.497193         1.108793
 C         3.092150         1.972568         1.091985
 O         2.849485         2.668327        -0.088743
 C         2.937894         1.767081        -1.302702
 C         2.497989         0.344889        -1.034175
 H        -0.517914         0.123448         0.850622
 H        -0.237131         1.437854        -0.392956
 H        -0.470472        -0.261519        -0.789762
 H         4.038106        -1.007682         0.108808
 H         2.319383         0.091827         2.159059
 H         2.382948         2.568584         1.838350
 H         4.186820         2.087460         1.388045
 H         2.365944         2.269155        -2.074601
 H         4.039311         1.671082        -1.745099
 H         2.379405        -0.082109        -2.013221
