19
Iteration:   358charge 0 multiplicity 1
 C         0.041444         0.421393         0.009569
 C         1.414967         0.130129         0.051884
 O         1.772812        -1.298226         0.072100
 C         3.151871        -0.626304        -0.085633
 C         2.617888         0.467767         1.093219
 C         2.944172         2.028845         1.187687
 O         2.800277         2.614757        -0.062171
 C         2.979329         1.804857        -1.187213
 C         2.493182         0.385116        -1.073093
 H        -0.433692         0.256662         0.954043
 H        -0.251122         1.536923        -0.187285
 H        -0.522986         0.004685        -0.751018
 H         3.960349        -1.336864        -0.045480
 H         2.371050        -0.169229         1.962636
 H         2.196984         2.574802         1.788634
 H         4.010885         2.185798         1.505668
 H         2.702528         2.430892        -2.021471
 H         4.122582         1.746002        -1.379749
 H         2.206906        -0.086437        -2.033202
