19
Iteration:  1373
 C         0.039614         0.420312         0.018412
 C         1.437273         0.168138        -0.067594
 O         1.815417        -1.335772        -0.004412
 C         3.042282        -0.547482         0.141445
 C         2.491390         0.485283         1.103847
 C         3.057324         1.948469         1.142180
 O         2.744398         2.662341        -0.045617
 C         2.996692         1.777392        -1.188871
 C         2.538687         0.375678        -1.089071
 H        -0.406300         0.028360         1.034633
 H        -0.257848         1.479438        -0.129943
 H        -0.514052        -0.128597        -0.853363
 H         4.108749        -0.943516         0.214330
 H         2.333030         0.109686         2.157473
 H         2.617335         2.500195         1.922564
 H         4.134876         1.866106         1.275563
 H         2.439336         2.248719        -2.043121
 H         4.044720         1.920890        -1.618725
 H         2.546116        -0.287895        -1.976686
