19
Iteration:  2027
 C        -0.040946         0.409227        -0.150564
 C         1.424394         0.132014         0.088844
 O         1.877274        -1.358012         0.117764
 C         3.078708        -0.471338         0.065029
 C         2.564680         0.489713         1.071531
 C         2.965468         1.917763         1.217052
 O         2.916228         2.629728        -0.058793
 C         2.906852         1.812095        -1.281956
 C         2.475444         0.371484        -1.039939
 H        -0.708701         0.032011         0.590673
 H        -0.236890         1.569005        -0.006973
 H        -0.218109         0.164766        -1.208140
 H         4.184515        -0.997162         0.236884
 H         2.508270         0.089459         2.067053
 H         2.221380         2.418115         1.791509
 H         4.053936         1.920030         1.536652
 H         2.135887         2.213796        -1.903214
 H         3.905456         1.888064        -1.797336
 H         2.215594        -0.029227        -1.977962
