19
Iteration:  3763charge 0 multiplicity 1
 C        -0.015857         0.356592        -0.042128
 C         1.437520         0.167694         0.077727
 O         1.869482        -1.362442         0.137315
 C         3.106588        -0.440307         0.151994
 C         2.414542         0.587999         1.131380
 C         3.073268         1.912596         1.144733
 O         2.816766         2.599958        -0.190843
 C         3.005390         1.824486        -1.287745
 C         2.453254         0.357373        -1.070493
 H        -0.581102         0.160226         0.895552
 H        -0.289935         1.468978        -0.213065
 H        -0.390790        -0.178809        -0.960911
 H         4.088244        -1.066384         0.263762
 H         2.258692         0.108959         2.050675
 H         2.767520         2.617968         1.854427
 H         4.097789         1.597787         1.139050
 H         2.317535         2.266193        -2.068297
 H         4.003181         1.943243        -1.569773
 H         2.299804        -0.363272        -1.890799
