19
Iteration:  2384charge 0 multiplicity 1
 C        -0.111801         0.402078        -0.117303
 C         1.398172         0.149656         0.004687
 O         1.827631        -1.328756         0.084772
 C         3.128563        -0.458926         0.080426
 C         2.542830         0.524269         1.131365
 C         3.189353         1.936839         1.125833
 O         2.665336         2.524588        -0.013930
 C         3.000617         1.826199        -1.220402
 C         2.564059         0.383817        -1.064677
 H        -0.573870        -0.043053         0.814550
 H        -0.320453         1.502516        -0.242091
 H        -0.498706         0.056895        -1.079218
 H         4.064272        -0.924840         0.201269
 H         2.315037         0.201662         2.142662
 H         2.664582         2.565040         1.950146
 H         4.314140         1.942000         1.058625
 H         2.385870         2.333275        -2.087031
 H         4.079199         1.825886        -1.238176
 H         2.383735        -0.213037        -2.021725
