19
Iteration:  2847
 C        -0.026044         0.434753         0.103959
 C         1.466186         0.066888         0.015084
 O         1.886808        -1.283035         0.051152
 C         3.124115        -0.496960         0.135306
 C         2.428230         0.478402         1.062980
 C         2.933729         1.952578         1.170279
 O         2.779236         2.643785        -0.177441
 C         3.057029         1.799724        -1.299209
 C         2.535636         0.386720        -1.056471
 H        -0.270805        -0.072295         1.106734
 H        -0.169222         1.438448         0.312288
 H        -0.632029         0.025970        -0.771893
 H         4.010249        -1.210877         0.137190
 H         2.179204        -0.115131         1.934372
 H         2.330074         2.660587         1.772860
 H         3.975395         1.770413         1.439652
 H         2.565327         2.310109        -2.096738
 H         4.186126         1.644370        -1.587465
 H         2.190913        -0.133027        -1.906724
