19
Iteration:   867charge 0 multiplicity 1
 C        -0.009378         0.328937        -0.026006
 C         1.438855         0.168430         0.079711
 O         1.779559        -1.300164         0.074071
 C         3.089041        -0.554751        -0.016908
 C         2.577468         0.453506         1.143012
 C         3.028326         1.980109         1.190562
 O         2.753355         2.693510        -0.121698
 C         3.086698         1.815307        -1.182983
 C         2.431894         0.414301        -1.115563
 H        -0.568240        -0.104908         0.768598
 H        -0.207328         1.522948         0.000885
 H        -0.405776        -0.176826        -0.939008
 H         4.085944        -1.236272        -0.141025
 H         2.403032         0.015079         2.181573
 H         2.411330         2.508148         1.959671
 H         4.087950         1.838478         1.487964
 H         2.684077         2.330007        -2.073804
 H         4.153021         1.575832        -1.432131
 H         2.356594        -0.277516        -2.004890
