19
Iteration:  3399
 C         0.038741         0.405534        -0.021790
 C         1.451453         0.128418         0.064178
 O         1.793436        -1.284241         0.158288
 C         3.129335        -0.566166         0.074950
 C         2.539814         0.551525         1.102260
 C         2.998669         2.004449         1.075715
 O         2.736258         2.620814        -0.114109
 C         2.996688         1.807224        -1.236098
 C         2.459689         0.282936        -1.104582
 H        -0.524575        -0.075074         0.789115
 H        -0.123367         1.498867        -0.080242
 H        -0.220111        -0.157033        -0.948597
 H         4.127766        -1.179423         0.182920
 H         2.361186         0.276597         2.132866
 H         2.780652         2.559258         1.986042
 H         4.000478         1.913622         1.208487
 H         2.549232         2.396191        -2.064850
 H         4.129351         1.805044        -1.376898
 H         2.310893        -0.238174        -2.081815
