19
Iteration:  4354charge 0 multiplicity 1
 C        -0.058944         0.362077         0.019561
 C         1.405277         0.181434         0.027909
 O         1.911215        -1.307871         0.159300
 C         3.080218        -0.403552         0.008397
 C         2.504378         0.508252         1.104999
 C         2.994562         1.951768         1.157258
 O         2.865848         2.616491        -0.161467
 C         3.052896         1.707476        -1.226793
 C         2.385661         0.357676        -1.096460
 H        -0.530316        -0.035391         0.934808
 H        -0.414556         1.529970         0.020665
 H        -0.571549        -0.222349        -0.717854
 H         4.068138        -1.015057         0.011015
 H         2.243891         0.167810         2.138164
 H         2.180908         2.508297         1.718456
 H         3.982092         2.091176         1.400245
 H         2.969534         2.207692        -2.222198
 H         4.155636         1.598509        -1.247624
 H         2.364227        -0.197318        -2.032457
