19
Iteration:  1187
 C        -0.121202         0.415979        -0.133529
 C         1.413319         0.196237         0.009144
 O         1.839054        -1.275754         0.118646
 C         3.128798        -0.507724        -0.005939
 C         2.609218         0.467750         1.124355
 C         3.088216         1.910899         1.221480
 O         2.761345         2.597873        -0.030260
 C         2.937690         1.783348        -1.194614
 C         2.518472         0.381605        -1.084597
 H        -0.823178         0.097575         0.641213
 H        -0.128457         1.420076        -0.108099
 H        -0.431363         0.103718        -1.119961
 H         4.108293        -1.144756        -0.013595
 H         2.508102         0.010953         2.111164
 H         2.534468         2.317974         2.042788
 H         4.145032         2.000940         1.360337
 H         2.340212         2.208141        -2.005587
 H         4.043297         1.800399        -1.666902
 H         2.447937        -0.192928        -1.977573
