19
Iteration:  3672
 C        -0.109715         0.473146         0.117289
 C         1.343729         0.103185         0.051944
 O         1.850031        -1.363821         0.119331
 C         3.086752        -0.460255         0.077059
 C         2.469671         0.527355         1.030683
 C         3.048292         1.954595         1.139371
 O         2.700380         2.615040        -0.203150
 C         3.098464         1.811315        -1.264871
 C         2.666823         0.305227        -1.051357
 H        -0.401437        -0.034738         1.107902
 H        -0.253398         1.551364         0.154813
 H        -0.530848        -0.047758        -0.846079
 H         4.093138        -1.049838         0.032037
 H         2.307680         0.345236         2.104158
 H         2.412234         2.559656         1.728772
 H         4.111240         1.898996         1.376447
 H         2.604278         2.205744        -2.168908
 H         4.184761         1.847077        -1.479577
 H         2.658597        -0.320333        -1.964386
