19
Iteration:  3195charge 0 multiplicity 1
 C        -0.014748         0.500292        -0.036769
 C         1.433388         0.145266         0.111092
 O         1.911612        -1.329094         0.201901
 C         3.060288        -0.457953         0.077280
 C         2.535540         0.422533         1.113135
 C         2.970414         1.891283         1.055352
 O         2.726877         2.573124        -0.154453
 C         3.062976         1.812537        -1.288579
 C         2.453507         0.400386        -1.082413
 H        -0.438678         0.243275         0.971994
 H        -0.200048         1.504886        -0.189859
 H        -0.451482        -0.182524        -0.830321
 H         4.106121        -0.911332         0.269490
 H         2.440159        -0.046060         2.101741
 H         2.267835         2.486525         1.714469
 H         4.118208         1.991931         1.295563
 H         2.710951         2.478936        -2.154025
 H         4.179260         1.757974        -1.426137
 H         2.279024        -0.251439        -1.991815
