19
Iteration:  2556charge 0 multiplicity 1
 C        -0.024106         0.438598        -0.109382
 C         1.442137         0.115692         0.031904
 O         1.870675        -1.324847         0.060335
 C         3.090490        -0.533627         0.081510
 C         2.585397         0.540631         1.120734
 C         3.106282         1.976330         1.112639
 O         2.691895         2.640372        -0.025038
 C         2.949681         1.797562        -1.220340
 C         2.467749         0.333514        -1.033033
 H        -0.712723        -0.061883         0.669657
 H        -0.313293         1.497073        -0.304412
 H        -0.410173        -0.089649        -1.041337
 H         4.033857        -1.332910         0.079196
 H         2.477705         0.124992         2.156524
 H         2.763297         2.528655         1.995899
 H         4.167129         1.874251         1.354731
 H         2.582468         2.358784        -2.032507
 H         4.055200         1.740723        -1.401839
 H         2.187546        -0.158844        -1.938199
