19
Iteration:   734charge 0 multiplicity 1
 C        -0.157045         0.495260         0.160908
 C         1.394491         0.105365        -0.029116
 O         1.905438        -1.358549        -0.014681
 C         3.098811        -0.472317         0.082528
 C         2.513887         0.447021         1.039019
 C         2.965626         1.909001         1.112950
 O         2.700556         2.574028        -0.076842
 C         3.167365         1.850291        -1.222026
 C         2.564172         0.382988        -1.074568
 H        -0.598463         0.350527         1.219846
 H        -0.275158         1.482010        -0.197800
 H        -0.755938        -0.116942        -0.691487
 H         4.075209        -0.895491         0.235571
 H         2.392441         0.151702         2.019415
 H         2.604786         2.572429         1.883506
 H         4.073685         1.880658         1.440302
 H         2.763228         2.326895        -2.102481
 H         4.271406         1.932992        -1.292336
 H         2.428506        -0.198310        -1.984553
