19
Iteration:  3413
 C         0.054754         0.428983        -0.090224
 C         1.466309         0.148704         0.111842
 O         1.860495        -1.238026         0.166771
 C         3.121249        -0.479171         0.078244
 C         2.552630         0.509586         1.085491
 C         3.053521         1.894647         1.113983
 O         2.682335         2.625248        -0.141164
 C         2.964278         1.682522        -1.250296
 C         2.457604         0.384875        -1.015868
 H        -0.631322        -0.067017         0.663234
 H        -0.099128         1.449955        -0.018823
 H        -0.320640         0.282748        -1.164127
 H         3.943972        -1.082027         0.164553
 H         2.440255        -0.033079         2.027628
 H         2.452421         2.526257         1.819049
 H         4.090465         1.993645         1.231237
 H         2.479013         2.076872        -2.213133
 H         4.073923         1.562643        -1.467649
 H         2.087223        -0.192462        -1.936032
