19
Iteration:  1785
 C        -0.050643         0.404130         0.108427
 C         1.423715         0.133835        -0.033684
 O         1.853777        -1.288358         0.056971
 C         3.100909        -0.556309        -0.002560
 C         2.410253         0.516203         1.076704
 C         2.933549         1.919033         1.177512
 O         2.765253         2.640211        -0.091981
 C         3.116553         1.777927        -1.233616
 C         2.595809         0.380288        -1.089823
 H        -0.246263         0.319068         1.145053
 H        -0.323402         1.576818        -0.104067
 H        -0.467798        -0.397726        -0.446457
 H         4.089860        -1.081133         0.155152
 H         2.124316         0.016353         2.001027
 H         2.470714         2.605894         1.895818
 H         3.995297         1.897112         1.420966
 H         2.668975         2.184722        -2.156773
 H         4.193789         1.912489        -1.379532
 H         2.471785        -0.013771        -2.103025
