19
Iteration:  1279charge 0 multiplicity 1
 C        -0.037136         0.372889         0.057905
 C         1.423023         0.201553        -0.006542
 O         1.782057        -1.251450         0.114025
 C         3.163350        -0.574651         0.034615
 C         2.505120         0.488272         1.091275
 C         2.948375         1.864481         1.105980
 O         2.736856         2.593316        -0.054980
 C         3.146195         1.870224        -1.227798
 C         2.516810         0.399741        -1.124259
 H        -0.452414        -0.014461         0.994685
 H        -0.212469         1.383175        -0.015416
 H        -0.483245        -0.078520        -0.849407
 H         4.123097        -1.131554         0.136383
 H         2.204655        -0.006600         2.027857
 H         2.312059         2.399656         1.913015
 H         3.994356         1.843934         1.338399
 H         2.802353         2.442752        -2.120680
 H         4.300104         1.837097        -1.478402
 H         2.362252        -0.061976        -2.155854
