19
Iteration:  3905charge 0 multiplicity 1
 C        -0.097577         0.403731        -0.099497
 C         1.362914         0.199883         0.055325
 O         1.875545        -1.320752         0.164917
 C         3.064289        -0.542271         0.090330
 C         2.566877         0.534448         1.148318
 C         3.064863         1.967172         1.118455
 O         2.753290         2.614071        -0.151443
 C         3.025218         1.761079        -1.265401
 C         2.567753         0.358051        -1.016996
 H        -0.417691         0.216676         0.946006
 H        -0.506138         1.511780        -0.112085
 H        -0.677200        -0.269639        -0.722868
 H         4.090058        -1.032471        -0.035568
 H         2.300893         0.083964         2.066140
 H         2.540945         2.565863         1.746732
 H         4.075031         1.849261         1.251614
 H         2.396594         2.151276        -2.120137
 H         4.163947         1.776740        -1.726810
 H         2.566936        -0.179364        -1.963032
