19
Iteration:  3164charge 0 multiplicity 1
 C        -0.068164         0.432785         0.008416
 C         1.333611         0.066109        -0.001836
 O         1.896002        -1.279326         0.079955
 C         3.089475        -0.534216         0.132321
 C         2.532232         0.509134         1.033805
 C         3.030883         2.034806         1.135130
 O         2.805934         2.638597        -0.099625
 C         2.983043         1.759867        -1.236914
 C         2.557195         0.293463        -1.094509
 H        -0.217972         0.313524         1.088620
 H        -0.161731         1.399673        -0.239087
 H        -0.788278        -0.257845        -0.421919
 H         4.072841        -1.142309         0.329577
 H         2.321744         0.098415         2.058216
 H         2.485968         2.667452         1.779247
 H         3.979063         2.289307         1.544582
 H         2.315224         2.219890        -1.938332
 H         3.969915         1.791941        -1.696327
 H         2.540913        -0.321169        -2.003560
