19
Iteration:  1277charge 0 multiplicity 1
 C        -0.026369         0.374266         0.067478
 C         1.434355         0.208210        -0.016684
 O         1.790035        -1.248361         0.099619
 C         3.144272        -0.560524         0.034443
 C         2.496906         0.492386         1.089959
 C         2.932713         1.872300         1.120710
 O         2.741249         2.591793        -0.054265
 C         3.150887         1.847666        -1.219562
 C         2.521212         0.393389        -1.129588
 H        -0.420573        -0.022039         1.071019
 H        -0.232323         1.344679        -0.034450
 H        -0.526379        -0.087993        -0.853425
 H         4.159616        -1.213182         0.131070
 H         2.165624         0.012261         2.026063
 H         2.356075         2.427579         1.930137
 H         4.034386         1.868290         1.260536
 H         2.785424         2.428050        -2.100565
 H         4.229977         1.862467        -1.466478
 H         2.342703        -0.093223        -2.141654
