19
Iteration:  4364
 C        -0.064130         0.386917         0.076675
 C         1.407542         0.175717         0.029573
 O         1.902790        -1.334803         0.145568
 C         3.110528        -0.446863         0.066925
 C         2.491302         0.561894         1.081041
 C         2.915219         1.979694         1.106820
 O         2.854173         2.577946        -0.137513
 C         3.104594         1.710183        -1.271625
 C         2.417126         0.396694        -1.111045
 H        -0.373464        -0.106139         0.985709
 H        -0.425662         1.489782        -0.111208
 H        -0.427441        -0.090404        -0.798864
 H         4.170026        -0.887759        -0.068429
 H         2.232992        -0.022410         1.994083
 H         2.455854         2.555588         1.876416
 H         3.924646         2.003679         1.597080
 H         2.808861         2.350614        -2.117246
 H         4.090975         1.338575        -1.314912
 H         2.094184        -0.139786        -2.004974
