19
Iteration:  4221charge 0 multiplicity 1
 C        -0.081783         0.497463         0.068118
 C         1.428199         0.145068         0.010624
 O         1.863802        -1.242456         0.160406
 C         3.149942        -0.542514         0.115460
 C         2.525260         0.486814         1.106282
 C         2.953115         1.911434         1.085710
 O         2.695433         2.541700        -0.182252
 C         3.096209         1.822180        -1.282926
 C         2.557837         0.340659        -1.103165
 H        -0.470623        -0.004343         0.991382
 H        -0.260222         1.635858        -0.007536
 H        -0.610471         0.053453        -0.814841
 H         4.097333        -1.167079         0.105569
 H         2.427404         0.029671         2.131736
 H         2.352208         2.421642         1.909118
 H         3.925583         2.109039         1.460015
 H         2.763961         2.272454        -2.255914
 H         4.196133         1.729059        -1.254458
 H         2.329793        -0.249585        -2.011815
