19
Iteration:  4948charge 0 multiplicity 1
 C        -0.157311         0.433565         0.046844
 C         1.304230         0.112984         0.057535
 O         1.937348        -1.298026         0.201370
 C         3.182300        -0.469035         0.085701
 C         2.447902         0.500982         1.102896
 C         2.965898         1.895990         1.084360
 O         2.831945         2.608140        -0.182890
 C         3.087368         1.748609        -1.341647
 C         2.522230         0.426723        -1.061182
 H        -0.551914        -0.334208         0.764712
 H        -0.279804         1.449312         0.363335
 H        -0.733465         0.394029        -0.896076
 H         4.136054        -0.957895         0.355406
 H         2.239091        -0.014244         2.086342
 H         2.469226         2.551977         1.864770
 H         4.011579         1.882934         1.264392
 H         2.670564         2.260410        -2.251340
 H         4.216950         1.712809        -1.632710
 H         2.529283        -0.153024        -2.000671
