19
Iteration:  4472charge 0 multiplicity 1
 C         0.060543         0.448646        -0.119743
 C         1.488997         0.152436         0.069344
 O         1.793421        -1.337406         0.192332
 C         3.109382        -0.521965         0.089452
 C         2.569694         0.485123         1.103197
 C         3.061346         1.995978         1.127090
 O         2.676037         2.628741        -0.142793
 C         2.959902         1.815074        -1.213572
 C         2.458932         0.296129        -1.048432
 H        -0.481262         0.123534         0.783323
 H         0.001200         1.543272        -0.338081
 H        -0.374148        -0.215994        -0.899671
 H         3.916730        -1.224949         0.141937
 H         2.258398         0.018736         2.058391
 H         2.835545         2.660643         1.862714
 H         4.167339         1.961264         1.110384
 H         2.547617         2.336785        -2.035821
 H         4.071492         1.877021        -1.656586
 H         2.279773        -0.247558        -1.992632
