19
Iteration:  2050charge 0 multiplicity 1
 C        -0.132786         0.427866        -0.133352
 C         1.436426         0.101858         0.033506
 O         1.909975        -1.331696         0.105056
 C         3.149583        -0.507068         0.040050
 C         2.512772         0.490054         1.149637
 C         2.964457         1.961900         1.218183
 O         2.936743         2.625896        -0.100091
 C         2.917820         1.838158        -1.216344
 C         2.457933         0.349409        -1.052767
 H        -0.629468         0.003019         0.726367
 H        -0.436396         1.477836         0.105775
 H        -0.530389         0.130649        -1.135825
 H         4.119951        -1.166101        -0.241456
 H         2.413329         0.036650         2.132583
 H         2.232118         2.478586         1.837820
 H         4.067586         2.035101         1.415446
 H         2.415990         2.371974        -1.996735
 H         4.009243         1.673849        -1.519277
 H         2.369626        -0.144128        -1.959497
