19
Iteration:  2670charge 0 multiplicity 1
 C        -0.053132         0.301393         0.048425
 C         1.421717         0.164868         0.035752
 O         1.818216        -1.275301         0.078273
 C         3.134315        -0.430190        -0.014885
 C         2.524012         0.559880         1.071042
 C         2.990315         2.018867         1.140893
 O         2.774911         2.578485        -0.081797
 C         3.101728         1.741530        -1.151354
 C         2.439321         0.326666        -1.123756
 H        -0.473514        -0.344998         0.804972
 H        -0.096118         1.441784         0.069691
 H        -0.483437        -0.006273        -0.927161
 H         4.221250        -1.049350        -0.068125
 H         2.302571         0.107196         2.045411
 H         2.471958         2.651402         1.926026
 H         4.004571         2.166838         1.513325
 H         2.861561         2.174955        -2.226052
 H         4.225890         1.491044        -1.157671
 H         2.018502        -0.126066        -2.089675
