19
Iteration:  2719charge 0 multiplicity 1
 C        -0.089077         0.396062         0.014791
 C         1.410958         0.035402        -0.003321
 O         1.884470        -1.314778         0.078333
 C         3.116510        -0.510497         0.130885
 C         2.464099         0.540693         1.066973
 C         3.036723         1.936673         1.124415
 O         2.825241         2.688720        -0.094636
 C         2.954959         1.817728        -1.248949
 C         2.555091         0.358688        -1.064664
 H        -0.529305        -0.118804         0.876144
 H        -0.118072         1.485809         0.064142
 H        -0.532550         0.001188        -0.875719
 H         3.890777        -1.085182         0.366929
 H         2.193208         0.108757         2.062142
 H         2.681661         2.614912         1.938364
 H         4.119980         1.859540         1.401955
 H         2.250743         2.230935        -2.071595
 H         3.888983         1.739333        -1.844142
 H         2.656245        -0.163031        -1.991613
