19
Iteration:  1887
 C         0.013627         0.487188        -0.026244
 C         1.475618         0.134773        -0.032239
 O         1.912491        -1.350514         0.069589
 C         3.116976        -0.524588         0.201432
 C         2.384623         0.489983         1.117251
 C         3.027876         1.826381         1.128767
 O         2.805666         2.605005        -0.096452
 C         2.919276         1.859961        -1.317885
 C         2.530744         0.434870        -1.031707
 H        -0.429530        -0.106809         0.841660
 H        -0.100019         1.619069         0.118890
 H        -0.474387         0.219057        -1.030297
 H         3.966139        -0.994845         0.396729
 H         2.163073        -0.079917         2.087899
 H         2.464026         2.432016         1.967474
 H         4.058860         1.781185         1.259768
 H         2.179188         2.326303        -2.103211
 H         3.974712         1.934730        -1.762655
 H         2.333457        -0.155847        -1.911338
