19
Iteration:  2532charge 0 multiplicity 1
 C        -0.112973         0.379944         0.009453
 C         1.393091         0.156713        -0.026959
 O         1.847569        -1.241025         0.117407
 C         3.150700        -0.439495         0.106641
 C         2.478868         0.446750         1.125448
 C         3.065360         1.865725         1.099267
 O         2.698670         2.568833        -0.071727
 C         3.097758         1.848045        -1.271594
 C         2.578404         0.382762        -1.066118
 H        -0.627694        -0.221931         0.868302
 H        -0.412291         1.419583        -0.048046
 H        -0.644458        -0.080900        -0.907448
 H         4.209630        -0.949960         0.015688
 H         2.051584        -0.113698         2.020404
 H         2.832089         2.607967         1.954352
 H         4.127067         1.704648         1.305224
 H         2.483613         2.397439        -2.049301
 H         4.171339         1.948492        -1.653036
 H         2.499249        -0.088712        -2.039182
