19
Iteration:  2918
 C        -0.139644         0.339881        -0.016477
 C         1.383937         0.114379         0.068760
 O         1.867352        -1.302568         0.119000
 C         3.152484        -0.481979         0.072000
 C         2.472151         0.537706         1.095343
 C         3.046190         1.920597         1.129062
 O         2.852927         2.615005        -0.110167
 C         2.991214         1.783731        -1.306761
 C         2.529333         0.414813        -1.030152
 H        -0.660532        -0.075293         0.788462
 H        -0.253642         1.465682        -0.115699
 H        -0.302942        -0.080206        -0.956693
 H         4.094589        -0.957187         0.320825
 H         2.444323         0.067256         2.120958
 H         2.607292         2.632806         1.869778
 H         4.084840         1.737662         1.243629
 H         2.139664         2.376324        -1.884637
 H         3.976702         1.983902        -1.739804
 H         2.365657        -0.149174        -2.019635
