19
Iteration:  2120charge 0 multiplicity 1
 C        -0.030107         0.352120         0.022669
 C         1.444283         0.137988         0.078850
 O         1.794167        -1.276299         0.058268
 C         3.119202        -0.527210        -0.001210
 C         2.490214         0.491705         1.096564
 C         2.968760         1.913120         1.108407
 O         2.708977         2.682136        -0.099817
 C         3.127087         1.795786        -1.181429
 C         2.560452         0.386261        -1.079789
 H        -0.631351         0.230714         0.948064
 H        -0.277597         1.339837        -0.085953
 H        -0.346036        -0.234090        -0.817864
 H         3.987951        -1.046488        -0.039934
 H         2.322998         0.120993         2.160313
 H         2.422935         2.507153         1.966854
 H         4.089362         1.702207         1.145616
 H         2.923466         2.343523        -2.178602
 H         4.214761         1.696333        -1.029393
 H         2.325898        -0.195347        -2.026919
