19
Iteration:  4491charge 0 multiplicity 1
 C        -0.042673         0.452024        -0.017849
 C         1.442628         0.131709         0.002082
 O         1.818855        -1.271047         0.147663
 C         3.140428        -0.524509         0.145063
 C         2.510789         0.534280         1.109101
 C         3.068414         1.896547         1.045845
 O         2.703258         2.618841        -0.094050
 C         2.971967         1.780752        -1.301896
 C         2.575607         0.348080        -1.040553
 H        -0.619274         0.256513         0.970854
 H        -0.051782         1.512512        -0.159983
 H        -0.409259        -0.351105        -0.780072
 H         4.065588        -1.044906         0.195708
 H         2.398655         0.128369         2.145510
 H         2.435480         2.434539         1.885549
 H         4.115431         1.875708         1.281236
 H         2.400762         2.102826        -2.189737
 H         3.993553         1.863525        -1.591581
 H         2.553832        -0.215358        -2.007193
