19
Iteration:  2161charge 0 multiplicity 1
 C        -0.063887         0.569590        -0.106580
 C         1.399821         0.114728         0.032193
 O         1.898586        -1.297366         0.076413
 C         3.196396        -0.499442         0.024207
 C         2.521997         0.500718         1.093555
 C         2.980127         1.961222         1.214444
 O         2.732151         2.607197        -0.011829
 C         2.935564         1.697258        -1.232115
 C         2.544905         0.280602        -1.095826
 H        -0.679216         0.235534         0.828598
 H        -0.042043         1.682558        -0.091025
 H        -0.485811         0.011934        -1.011885
 H         4.192556        -1.137834         0.193301
 H         2.571135        -0.108931         2.024016
 H         2.571296         2.622439         2.017542
 H         4.054426         1.964561         1.436604
 H         2.367239         2.246848        -2.059184
 H         3.987347         1.766929        -1.591570
 H         2.435913        -0.187844        -2.028286
