19
Iteration:  2582charge 0 multiplicity 1
 C         0.034868         0.502855        -0.111722
 C         1.446562         0.075161         0.059750
 O         1.854419        -1.351236         0.215881
 C         3.104356        -0.458539        -0.001033
 C         2.540105         0.428731         1.103820
 C         3.013822         1.845062         1.108577
 O         2.695970         2.641237        -0.079325
 C         2.934326         1.850254        -1.250254
 C         2.563371         0.398899        -1.023879
 H        -0.635950         0.345303         0.678404
 H        -0.057368         1.615410        -0.315403
 H        -0.368828        -0.004743        -0.979202
 H         4.030020        -1.105144         0.125201
 H         2.540183        -0.087063         2.039337
 H         2.477170         2.400045         1.903338
 H         4.085722         1.806440         1.439682
 H         2.465399         2.360250        -2.116742
 H         3.935966         1.922230        -1.637141
 H         2.316342        -0.053273        -2.030107
