19
Iteration:   414charge 0 multiplicity 1
 C        -0.057560         0.452745         0.096228
 C         1.360507         0.095321         0.015946
 O         1.920204        -1.362883        -0.002602
 C         3.046927        -0.402698         0.028018
 C         2.420344         0.468325         1.048429
 C         3.009913         1.918205         1.125388
 O         2.787682         2.605658        -0.025123
 C         3.085182         1.798465        -1.254249
 C         2.514666         0.344816        -1.042187
 H        -0.440163         0.342233         1.085970
 H         0.076052         1.558306        -0.229941
 H        -0.676824        -0.045957        -0.669341
 H         4.001574        -0.973941         0.040717
 H         2.328690         0.089768         2.096689
 H         2.806734         2.601456         2.022832
 H         4.156544         1.947259         1.211638
 H         2.556422         2.374449        -2.007393
 H         4.179958         1.898326        -1.391390
 H         2.367235        -0.233114        -2.021388
