19
Iteration:  2464charge 0 multiplicity 1
 C         0.013614         0.389938         0.051694
 C         1.408674         0.143908         0.044506
 O         1.883456        -1.316599         0.142138
 C         3.110707        -0.421267        -0.002858
 C         2.493387         0.453535         1.045247
 C         2.844328         1.889503         1.144261
 O         2.885351         2.567093        -0.072723
 C         3.103483         1.802805        -1.244257
 C         2.426499         0.457282        -1.100326
 H        -0.587029        -0.042785         0.874115
 H        -0.125497         1.506107        -0.126682
 H        -0.249888        -0.180852        -0.880858
 H         4.050148        -0.954946        -0.034246
 H         2.328125        -0.020211         2.025698
 H         2.066575         2.446144         1.852117
 H         3.754413         2.227845         1.604157
 H         2.642742         2.365261        -2.179715
 H         4.136826         1.773984        -1.601174
 H         2.125968        -0.167196        -1.991939
