19
Iteration:  2350charge 0 multiplicity 1
 C         0.058791         0.457848        -0.123111
 C         1.466888         0.195483         0.105622
 O         1.839938        -1.341238         0.121422
 C         3.121037        -0.538214         0.033202
 C         2.519969         0.493578         1.059501
 C         3.033075         1.932891         1.128441
 O         2.691246         2.638354        -0.038174
 C         2.966703         1.791853        -1.226787
 C         2.506881         0.321139        -1.062648
 H        -0.665181        -0.002733         0.661642
 H        -0.137388         1.507029         0.018007
 H        -0.190143         0.002478        -1.101868
 H         4.096513        -1.061936         0.068662
 H         2.283795         0.034931         2.038213
 H         2.451392         2.339084         1.981228
 H         4.103328         2.007509         1.495099
 H         2.611461         2.439089        -2.082370
 H         4.024824         1.724656        -1.459195
 H         2.086714        -0.048412        -2.010947
