19
Iteration:  4105charge 0 multiplicity 1
 C        -0.000304         0.402763        -0.025835
 C         1.408188         0.084678         0.000357
 O         1.875716        -1.309763         0.193716
 C         3.134887        -0.542463         0.190711
 C         2.415234         0.488867         1.129791
 C         3.032224         1.910646         1.051661
 O         2.835769         2.650195        -0.172917
 C         2.938590         1.816074        -1.248138
 C         2.500187         0.416564        -1.068066
 H        -0.553480         0.111002         0.907184
 H        -0.108104         1.523848        -0.339546
 H        -0.501746         0.001387        -0.969139
 H         4.138277        -1.050692         0.145145
 H         2.104483         0.286244         2.149348
 H         2.908488         2.558944         1.869763
 H         4.085393         1.833119         1.210933
 H         2.282073         2.246807        -2.044492
 H         4.048054         1.815357        -1.728569
 H         2.311458        -0.148999        -1.986290
