19
Iteration:   889charge 0 multiplicity 1
 C        -0.033524         0.455712         0.049341
 C         1.426736         0.150187         0.058676
 O         1.892496        -1.291958         0.096904
 C         3.095208        -0.470884        -0.027625
 C         2.553774         0.451130         1.019144
 C         2.923086         1.962980         1.157318
 O         2.715067         2.566957        -0.084257
 C         3.173082         1.758323        -1.166418
 C         2.446663         0.406181        -1.094493
 H        -0.597492         0.141044         0.894533
 H        -0.229652         1.637500        -0.118097
 H        -0.483413        -0.178414        -0.735555
 H         4.111159        -1.058444        -0.279431
 H         2.451269        -0.024173         2.045487
 H         2.211621         2.405344         1.900840
 H         3.982205         1.907704         1.471360
 H         2.874655         2.329082        -2.075317
 H         4.257456         1.458369        -1.339487
 H         1.927529        -0.028896        -2.009033
