19
Iteration:  1019
 C        -0.153816         0.405427        -0.031200
 C         1.385277         0.151632        -0.024275
 O         1.834609        -1.288052         0.030788
 C         3.093384        -0.498451         0.105124
 C         2.545041         0.442547         1.125523
 C         3.072066         1.911011         1.130444
 O         2.774908         2.646635        -0.071045
 C         3.062718         1.847344        -1.230812
 C         2.570825         0.368735        -1.013312
 H        -0.508067        -0.121636         0.768227
 H        -0.612159         1.461710        -0.048313
 H        -0.480986        -0.024090        -0.956626
 H         4.100485        -1.046947         0.187076
 H         2.366091        -0.079533         2.129503
 H         2.725515         2.480365         2.024180
 H         4.208337         1.885231         1.221999
 H         2.149741         2.212477        -1.905195
 H         4.054436         1.725486        -1.602940
 H         2.584499        -0.213247        -2.003928
