19
Iteration:  1398
 C        -0.084384         0.433423         0.033167
 C         1.372266         0.117924         0.096974
 O         1.891937        -1.275355         0.090231
 C         3.093594        -0.457686        -0.042053
 C         2.518279         0.443468         1.088369
 C         2.981958         1.890879         1.136026
 O         2.725342         2.588603        -0.088321
 C         3.158643         1.776524        -1.177198
 C         2.500524         0.446208        -1.126100
 H        -0.782771         0.249626         1.002777
 H        -0.316219         1.420421        -0.338504
 H        -0.553700        -0.261799        -0.845102
 H         4.151194        -1.034800         0.088304
 H         2.374785         0.023953         2.110270
 H         2.427481         2.515713         1.893627
 H         4.076055         1.850823         1.388215
 H         2.833325         2.354279        -2.100817
 H         4.234417         1.723312        -1.329827
 H         2.432573        -0.110167        -2.100972
