19
Iteration:   681
 C        -0.081979         0.439331        -0.033549
 C         1.411489         0.142813         0.023162
 O         1.878180        -1.263007         0.095644
 C         3.085558        -0.506446        -0.019762
 C         2.600242         0.470013         1.128984
 C         3.022151         1.888276         1.222363
 O         2.748286         2.573182        -0.112399
 C         2.981616         1.798122        -1.216587
 C         2.555155         0.382729        -1.085758
 H        -0.719239        -0.011074         0.751555
 H        -0.318524         1.496282         0.075608
 H        -0.556507         0.149132        -1.027954
 H         4.068087        -1.049963         0.045581
 H         2.363137         0.049765         2.118751
 H         2.393393         2.564010         1.825603
 H         4.043523         2.022473         1.559022
 H         2.693263         2.247083        -2.104232
 H         4.133768         1.857508        -1.292484
 H         2.233007        -0.117242        -2.002439
