19
Iteration:   467charge 0 multiplicity 1
 C        -0.056268         0.418162        -0.116525
 C         1.407750         0.133585         0.059505
 O         1.788350        -1.286020         0.116086
 C         3.163610        -0.406481         0.035511
 C         2.579620         0.472064         1.143937
 C         3.163175         1.895440         1.239478
 O         2.735634         2.619213        -0.055504
 C         2.940275         1.770048        -1.262142
 C         2.456779         0.359622        -1.136895
 H        -0.610346        -0.279552         0.488988
 H        -0.304543         1.584809         0.166258
 H        -0.133992         0.142735        -1.132877
 H         4.030776        -1.105471         0.057718
 H         2.453263        -0.016371         2.180561
 H         2.661125         2.500813         2.049374
 H         4.296938         1.825327         1.221368
 H         2.448798         2.262161        -2.150863
 H         4.035916         1.742978        -1.388194
 H         2.120980        -0.143772        -2.103813
