19
Iteration:  3183charge 0 multiplicity 1
 C        -0.005866         0.462481         0.038341
 C         1.434250         0.167242         0.043615
 O         1.865470        -1.357444         0.183905
 C         3.179954        -0.508811         0.034169
 C         2.440513         0.523525         1.113063
 C         2.943441         1.921124         1.113694
 O         2.767725         2.635961        -0.149212
 C         3.011629         1.778499        -1.262774
 C         2.527347         0.333169        -1.101573
 H        -0.538023         0.338171         1.014412
 H        -0.106734         1.496347        -0.354248
 H        -0.522989        -0.203944        -0.717031
 H         4.153393        -1.048265        -0.098164
 H         2.317090         0.158562         2.127041
 H         2.499018         2.545910         1.964699
 H         4.088027         1.880259         1.450003
 H         2.456637         2.181044        -2.202484
 H         4.117040         1.722231        -1.447903
 H         2.275612        -0.103309        -2.123544
