19
Iteration:  2705charge 0 multiplicity 1
 C        -0.152496         0.357087         0.010873
 C         1.359835         0.146629         0.059920
 O         1.872944        -1.379081         0.124043
 C         3.131379        -0.499045         0.069371
 C         2.434963         0.476802         1.098629
 C         3.045935         1.977148         1.095408
 O         2.836092         2.622333        -0.121624
 C         3.045950         1.851725        -1.264939
 C         2.608314         0.374854        -1.057729
 H        -0.698977        -0.085245         0.854344
 H        -0.353508         1.353239         0.162480
 H        -0.540114         0.046952        -0.967351
 H         4.178928        -0.922406        -0.036398
 H         2.393621         0.160745         2.164005
 H         2.397307         2.503349         1.890729
 H         4.104533         1.945687         1.291186
 H         2.389005         2.321179        -2.168148
 H         4.099273         2.175147        -1.471568
 H         2.248989        -0.066832        -1.987401
