19
Iteration:   814
 C        -0.011433         0.397476        -0.092634
 C         1.454771         0.112283         0.032181
 O         1.888121        -1.335462         0.034965
 C         3.107694        -0.428738         0.093384
 C         2.349750         0.502279         1.123271
 C         3.138273         1.880168         1.132464
 O         2.832414         2.606067        -0.027793
 C         2.908091         1.831290        -1.274994
 C         2.476410         0.397808        -1.066649
 H        -0.366821        -0.089424         0.794791
 H        -0.060603         1.610884         0.207746
 H        -0.592386         0.139102        -0.971903
 H         4.114818        -0.926447         0.525636
 H         2.245091         0.237066         2.231336
 H         2.615259         2.570735         1.849304
 H         4.205262         1.539375         1.425789
 H         2.229203         2.247407        -1.920712
 H         3.934406         1.804693        -1.707207
 H         2.311946        -0.223525        -2.009631
