19
Iteration:  4776
 C        -0.091813         0.399574        -0.029949
 C         1.370724         0.113819         0.115454
 O         1.933337        -1.309762         0.227360
 C         3.095743        -0.462990         0.032312
 C         2.464811         0.532932         1.064616
 C         2.980254         1.896319         1.062760
 O         2.873213         2.617060        -0.203067
 C         3.073255         1.779242        -1.227390
 C         2.451972         0.401682        -1.059004
 H        -0.794773        -0.264577         0.630244
 H        -0.419514         1.373373         0.258948
 H        -0.549068         0.063265        -1.044094
 H         4.110707        -0.750085         0.178615
 H         2.322342         0.115633         2.128586
 H         2.512373         2.680838         1.785044
 H         4.076453         1.830115         1.478351
 H         2.562562         2.319744        -2.127909
 H         4.159920         1.632011        -1.353486
 H         2.226559        -0.291739        -1.921260
