19
Iteration:  1906charge 0 multiplicity 1
 C        -0.010712         0.479769        -0.005034
 C         1.434950         0.071927         0.028752
 O         1.864566        -1.327714         0.074599
 C         3.129603        -0.460490         0.068156
 C         2.470773         0.456316         1.113391
 C         2.947132         1.910379         1.123572
 O         2.760906         2.620929        -0.086182
 C         3.012583         1.789030        -1.225572
 C         2.525749         0.367384        -1.095289
 H        -0.538558         0.201030         0.874772
 H         0.026156         1.629910         0.128690
 H        -0.401095         0.035884        -0.907312
 H         4.171262        -0.977766         0.040651
 H         2.301880         0.143677         2.134352
 H         2.453688         2.549241         1.844134
 H         4.047884         1.886018         1.412715
 H         2.595671         2.354991        -2.013358
 H         4.085999         1.838275        -1.514361
 H         2.371273        -0.177852        -2.003782
