19
Iteration:  4858charge 0 multiplicity 1
 C        -0.001175         0.498912        -0.069760
 C         1.414512         0.052573         0.060003
 O         1.886724        -1.297972         0.136716
 C         3.113504        -0.415194         0.100332
 C         2.540833         0.513897         1.116663
 C         3.055903         1.984227         1.061625
 O         2.679674         2.578639        -0.110902
 C         2.991650         1.688009        -1.180602
 C         2.457921         0.321420        -1.052029
 H        -0.426232         0.665949         0.864603
 H         0.001711         1.442372        -0.672034
 H        -0.646114        -0.001576        -0.699003
 H         4.095566        -0.976826         0.106951
 H         2.302292         0.199941         2.081575
 H         2.550328         2.575878         1.844137
 H         4.249991         1.870545         1.076521
 H         2.508429         2.076454        -2.030337
 H         4.095104         1.792518        -1.610364
 H         2.569224        -0.314535        -1.895839
