19
Iteration:   674charge 0 multiplicity 1
 C        -0.110376         0.435665        -0.068818
 C         1.370288         0.130241         0.016170
 O         1.912887        -1.262035         0.135546
 C         3.130776        -0.508008        -0.037816
 C         2.585914         0.463533         1.162200
 C         3.002324         1.889721         1.210799
 O         2.747837         2.616475        -0.095507
 C         3.052930         1.777344        -1.229691
 C         2.492922         0.392565        -1.056483
 H        -0.838580         0.007715         0.578787
 H        -0.191002         1.646404         0.065951
 H        -0.487742         0.260228        -1.014607
 H         4.103886        -1.115069        -0.152479
 H         2.544629        -0.277763         2.088793
 H         2.409512         2.626755         1.863483
 H         4.110746         1.887028         1.407302
 H         2.388866         2.369825        -2.058659
 H         4.099850         1.746008        -1.498543
 H         2.239241        -0.243319        -1.964507
