19
Iteration:  3752charge 0 multiplicity 1
 C        -0.012113         0.382814        -0.065532
 C         1.397403         0.157468         0.025868
 O         1.846730        -1.372021         0.199565
 C         3.030481        -0.463957         0.114794
 C         2.483065         0.466770         1.140659
 C         3.076121         1.993792         1.084802
 O         2.845802         2.647174        -0.107831
 C         2.971522         1.774142        -1.295899
 C         2.507671         0.354524        -1.086492
 H        -0.489984         0.019888         0.872571
 H        -0.236943         1.470995        -0.369104
 H        -0.396679        -0.368682        -0.832395
 H         4.177458        -0.641985         0.216243
 H         2.296768         0.127023         2.118238
 H         2.734091         2.572217         1.903699
 H         4.101085         2.065459         1.361833
 H         2.311478         2.286850        -2.053595
 H         3.947943         1.764295        -1.733166
 H         2.270901        -0.136510        -2.058031
