19
Iteration:  1112charge 0 multiplicity 1
 C         0.003408         0.448308         0.008748
 C         1.420507         0.129213         0.003073
 O         1.839158        -1.205312         0.103227
 C         3.092090        -0.547557         0.035280
 C         2.536517         0.414773         1.084604
 C         2.978072         1.884077         1.178028
 O         2.752353         2.589387        -0.068137
 C         3.070509         1.846539        -1.245014
 C         2.501384         0.411919        -1.097697
 H        -0.579863        -0.125871         0.886087
 H        -0.276483         1.456574        -0.008876
 H        -0.304901        -0.081406        -0.983650
 H         4.081595        -1.119787        -0.022125
 H         2.177566         0.029748         2.025133
 H         2.310803         2.272100         1.984458
 H         4.102110         1.982909         1.400596
 H         2.654639         2.245368        -2.154670
 H         4.081185         1.889509        -1.367205
 H         2.305413        -0.185756        -2.016066
