19
Iteration:  1899
 C         0.082820         0.480643         0.035826
 C         1.428691         0.099237         0.036687
 O         1.860141        -1.347818         0.069228
 C         3.164952        -0.478406         0.100370
 C         2.422612         0.464025         1.055009
 C         2.979993         1.886253         1.113182
 O         2.769026         2.594134        -0.092689
 C         3.000171         1.851540        -1.261086
 C         2.486882         0.386254        -1.044237
 H        -0.684271         0.080150         0.804781
 H         0.005448         1.559342        -0.019472
 H        -0.310277         0.069391        -0.964730
 H         4.059107        -0.876371         0.236466
 H         1.981205         0.146745         2.071821
 H         2.471144         2.539834         1.944381
 H         3.974499         1.817293         1.461560
 H         2.402519         2.361827        -2.143334
 H         4.090155         1.772873        -1.533980
 H         2.398154        -0.139687        -2.003379
