19
Iteration:  4457
 C        -0.075927         0.509679        -0.113774
 C         1.390489         0.130254         0.085747
 O         1.912516        -1.293125         0.220188
 C         3.111311        -0.583846         0.048544
 C         2.571084         0.523907         1.124059
 C         3.106544         1.937248         1.056762
 O         2.658724         2.602332        -0.089207
 C         2.974524         1.735514        -1.251596
 C         2.535727         0.346979        -1.046781
 H        -0.843336         0.262019         0.703875
 H        -0.177486         1.539015        -0.450991
 H        -0.428647         0.093509        -1.160406
 H         4.095227        -1.035101        -0.028117
 H         2.574977         0.174873         2.187554
 H         2.622830         2.493331         1.971364
 H         4.122372         2.063193         1.241855
 H         2.422398         2.199834        -2.131235
 H         4.030373         1.774818        -1.333595
 H         2.320885        -0.162191        -2.015396
