19
Iteration:  3376charge 0 multiplicity 1
 C        -0.191553         0.406429         0.032426
 C         1.346772         0.152977        -0.018467
 O         1.908932        -1.324322         0.167552
 C         3.089759        -0.488363         0.102340
 C         2.535598         0.446353         1.066376
 C         3.059845         1.922046         1.113470
 O         2.728522         2.645778        -0.184343
 C         3.071280         1.766146        -1.283695
 C         2.607509         0.425518        -1.029839
 H        -0.487250         0.293638         1.056598
 H        -0.246480         1.551100        -0.227506
 H        -0.781107        -0.258593        -0.554124
 H         4.114124        -1.113135         0.323638
 H         2.280580         0.138320         2.082803
 H         2.657320         2.375739         1.992037
 H         4.004544         1.907578         1.361090
 H         2.499873         2.181790        -2.096719
 H         4.176493         1.835837        -1.564956
 H         2.597038        -0.077249        -1.991402
