19
Iteration:  2051
 C        -0.128816         0.424260        -0.124525
 C         1.438746         0.094771         0.030589
 O         1.902989        -1.333641         0.105771
 C         3.146114        -0.499123         0.041683
 C         2.514778         0.493375         1.142990
 C         2.964636         1.954459         1.219162
 O         2.934594         2.620725        -0.098280
 C         2.925758         1.840758        -1.223631
 C         2.458108         0.353487        -1.055006
 H        -0.589599        -0.022257         0.750742
 H        -0.386571         1.442071         0.060665
 H        -0.529502         0.163460        -1.134255
 H         4.081150        -1.120545        -0.188970
 H         2.407813         0.053335         2.150501
 H         2.211938         2.536811         1.840090
 H         4.060820         2.007443         1.414069
 H         2.401021         2.388415        -2.019960
 H         4.003297         1.670409        -1.482267
 H         2.359914        -0.106491        -1.974329
