19
Iteration:  1408charge 0 multiplicity 1
 C        -0.183219         0.445068         0.040606
 C         1.333214         0.183953         0.093509
 O         1.913848        -1.325977         0.127794
 C         3.048692        -0.453775        -0.021933
 C         2.563258         0.458960         1.037776
 C         2.937212         1.884533         1.132378
 O         2.754725         2.580068        -0.077768
 C         3.199534         1.822314        -1.203797
 C         2.554940         0.405075        -1.140585
 H        -0.859382         0.237594         1.075057
 H        -0.189089         1.456058        -0.288228
 H        -0.472669        -0.383281        -0.831687
 H         4.184033        -0.873029        -0.133753
 H         2.731104        -0.171319         1.955880
 H         2.354282         2.265156         1.961085
 H         3.967925         2.052214         1.434009
 H         2.710325         2.336086        -2.093901
 H         4.297674         1.744769        -1.092059
 H         2.378401        -0.130517        -2.133436
