19
Iteration:   762charge 0 multiplicity 1
 C         0.039636         0.433164         0.011126
 C         1.484585         0.133530         0.018777
 O         1.851909        -1.281695         0.118134
 C         3.068295        -0.494542        -0.034755
 C         2.556239         0.431830         1.038227
 C         2.955851         1.955520         1.149394
 O         2.770963         2.571285        -0.017979
 C         3.027632         1.793062        -1.213918
 C         2.409005         0.405400        -1.085798
 H        -0.550920         0.163689         0.866909
 H        -0.112438         1.495504        -0.362441
 H        -0.204015        -0.119637        -0.831289
 H         4.016848        -1.070272        -0.026563
 H         2.363522         0.108953         2.109147
 H         2.343767         2.592477         1.843174
 H         3.926588         1.961096         1.650523
 H         2.563061         2.337197        -2.133817
 H         4.127705         1.679699        -1.361406
 H         2.309928        -0.127891        -2.042767
