19
Iteration:   485charge 0 multiplicity 1
 C        -0.043053         0.462034        -0.070545
 C         1.392271         0.100860         0.030112
 O         1.937303        -1.314095         0.081519
 C         3.078580        -0.505374         0.091505
 C         2.443571         0.482025         1.086855
 C         3.099229         1.850972         1.065039
 O         2.777433         2.587423        -0.069723
 C         2.972076         1.832491        -1.207473
 C         2.462793         0.403448        -0.997706
 H        -0.659221        -0.060708         0.699366
 H        -0.033623         1.484416         0.310061
 H        -0.583450         0.455957        -1.014010
 H         4.101739        -0.815238         0.074370
 H         2.301841         0.136194         2.107249
 H         2.778282         2.560309         1.791963
 H         4.159368         1.703014         1.160685
 H         2.358399         2.406566        -1.953221
 H         4.063544         1.846273        -1.495168
 H         2.456901        -0.062391        -1.934470
