19
Iteration:   566
 C        -0.182423         0.464256         0.005880
 C         1.417349         0.060981         0.073204
 O         1.922584        -1.316891         0.112945
 C         3.048093        -0.497129        -0.067546
 C         2.624891         0.426456         1.071404
 C         2.949308         1.959061         1.098113
 O         2.739173         2.645684        -0.092868
 C         3.145547         1.769128        -1.122321
 C         2.457701         0.431369        -1.064284
 H        -0.557883         0.396502         1.014878
 H        -0.085669         1.640515        -0.336523
 H        -0.558031        -0.193851        -0.776287
 H         4.011512        -1.063140        -0.070409
 H         2.464530        -0.150203         2.051502
 H         2.372467         2.484733         1.926294
 H         4.003017         2.021815         1.382600
 H         2.930547         2.263408        -2.162997
 H         4.265527         1.526518        -1.267250
 H         2.283355        -0.005336        -2.106669
