19
Iteration:  1128charge 0 multiplicity 1
 C        -0.123587         0.411881        -0.018269
 C         1.429755         0.207456        -0.018703
 O         1.816631        -1.353961         0.047295
 C         3.115155        -0.497532         0.073404
 C         2.481535         0.498836         1.102980
 C         3.083869         1.899988         1.129607
 O         2.711081         2.582918        -0.042958
 C         3.029291         1.841210        -1.215750
 C         2.639414         0.367946        -1.085996
 H        -0.462635        -0.079748         0.834909
 H        -0.220287         1.597851         0.132319
 H        -0.722294         0.185513        -0.881316
 H         3.960429        -1.084768         0.258519
 H         2.472065        -0.018862         2.103456
 H         2.724434         2.556684         1.954420
 H         4.140260         1.850438         1.392149
 H         2.329230         2.393927        -1.894117
 H         4.183267         1.840993        -1.581673
 H         2.529413        -0.114602        -2.089818
