19
Iteration:  2659charge 0 multiplicity 1
 C        -0.071452         0.364939         0.043643
 C         1.408201         0.137102        -0.003487
 O         1.856376        -1.344665         0.104058
 C         3.058823        -0.489430        -0.032250
 C         2.557655         0.542782         1.097009
 C         2.965210         2.004772         1.156364
 O         2.745693         2.654780        -0.102468
 C         3.167477         1.732844        -1.194912
 C         2.470796         0.359192        -1.093465
 H        -0.476837        -0.073665         0.944816
 H        -0.475250         1.403716         0.258463
 H        -0.591902        -0.021544        -0.850572
 H         4.160672        -1.021240        -0.141355
 H         2.413258         0.057009         2.069022
 H         2.336623         2.602874         1.874799
 H         4.031783         1.969188         1.352972
 H         2.741772         2.446899        -1.990194
 H         4.324950         1.688712        -1.276975
 H         2.464896        -0.288276        -2.035617
