19
Iteration:  4359
 C        -0.051895         0.399772         0.054320
 C         1.405218         0.184491         0.034917
 O         1.907079        -1.340085         0.152773
 C         3.109282        -0.417580         0.045120
 C         2.509472         0.559560         1.108084
 C         2.942344         1.948562         1.112720
 O         2.863944         2.595701        -0.146412
 C         3.050599         1.696151        -1.250504
 C         2.405042         0.396816        -1.115527
 H        -0.382044        -0.166215         0.953163
 H        -0.429326         1.353214        -0.125982
 H        -0.582692        -0.143337        -0.804732
 H         4.026053        -0.933546        -0.065220
 H         2.143599         0.023541         1.985243
 H         2.323896         2.538584         1.866438
 H         4.022358         2.091759         1.588737
 H         2.968282         2.287754        -2.173544
 H         4.173845         1.383915        -1.248350
 H         2.208224        -0.184048        -2.039503
