19
Iteration:  4525charge 0 multiplicity 1
 C        -0.035883         0.420251         0.084019
 C         1.407600         0.132411         0.020658
 O         1.927616        -1.349482         0.093260
 C         3.113012        -0.415315         0.118507
 C         2.430156         0.560890         1.081057
 C         2.978215         1.923407         1.120357
 O         2.790191         2.602759        -0.140565
 C         3.069365         1.743420        -1.317270
 C         2.446618         0.339989        -1.057587
 H        -0.445932         0.156947         1.117433
 H        -0.114305         1.471740        -0.233103
 H        -0.664865        -0.012731        -0.793561
 H         4.004222        -0.952624         0.099675
 H         2.243521         0.157983         2.101750
 H         2.491532         2.668086         1.827233
 H         4.035218         1.877360         1.497446
 H         2.640441         2.324399        -2.136178
 H         4.104614         1.604849        -1.441205
 H         2.557496        -0.259890        -1.973598
