19
Iteration:  3613
 C        -0.105149         0.502368        -0.091622
 C         1.309996         0.041312         0.075193
 O         1.930768        -1.306489         0.191104
 C         3.127164        -0.515008         0.099343
 C         2.597021         0.490465         1.106069
 C         3.067359         1.977399         1.097443
 O         2.725680         2.596827        -0.184521
 C         3.002383         1.820717        -1.273081
 C         2.501119         0.315448        -1.037932
 H        -0.715433        -0.003831         0.598887
 H        -0.301997         1.593948         0.228964
 H        -0.600008         0.285337        -0.967422
 H         3.916547        -1.151381         0.171030
 H         2.658707         0.004146         2.145546
 H         2.658813         2.616372         1.942338
 H         4.081261         2.140174         1.453385
 H         2.645760         2.358629        -2.145716
 H         4.054321         1.794896        -1.426219
 H         2.345848        -0.328334        -1.904604
