19
Iteration:  4345
 C        -0.125100         0.323216         0.008988
 C         1.355103         0.117775         0.047331
 O         1.884943        -1.244090         0.162322
 C         3.076700        -0.478709         0.010767
 C         2.509600         0.483704         1.084020
 C         3.028198         1.972234         1.144235
 O         2.836105         2.652424        -0.170573
 C         3.121085         1.759402        -1.224245
 C         2.445483         0.335113        -1.072512
 H        -0.599042         0.121016         0.979597
 H        -0.165104         1.507501        -0.044596
 H        -0.536948        -0.204730        -0.884121
 H         4.128641        -0.901614         0.056445
 H         2.564243         0.095637         2.086714
 H         2.268471         2.608329         1.835118
 H         3.994778         2.060445         1.517512
 H         2.547213         2.209099        -2.114055
 H         4.269151         1.611774        -1.378608
 H         2.305420        -0.240935        -1.998458
