19
Iteration:  4045
 C        -0.001288         0.496433         0.025976
 C         1.462427         0.163513         0.069847
 O         1.811475        -1.357633         0.174501
 C         3.094866        -0.486078         0.098511
 C         2.602385         0.486605         1.114622
 C         2.944964         1.965733         1.055370
 O         2.661745         2.626128        -0.156936
 C         3.133249         1.778617        -1.248862
 C         2.472892         0.279275        -1.123335
 H        -0.546266         0.151035         0.886484
 H        -0.154311         1.480694        -0.040465
 H        -0.202332        -0.082067        -0.860857
 H         4.073360        -0.937866        -0.075515
 H         2.490519         0.160030         2.196686
 H         2.295731         2.527790         1.811347
 H         3.986455         1.931713         1.232381
 H         2.840920         2.334796        -2.159647
 H         4.364933         1.664449        -1.251112
 H         2.005629        -0.186310        -2.016605
