19
Iteration:  2844
 C        -0.026201         0.424390         0.101248
 C         1.441036         0.077971         0.053894
 O         1.898030        -1.279848         0.029592
 C         3.107695        -0.483865         0.116596
 C         2.418055         0.510273         1.073628
 C         2.937859         1.949956         1.165801
 O         2.760933         2.630252        -0.176305
 C         3.055353         1.770495        -1.280094
 C         2.576474         0.381787        -1.075826
 H        -0.229697        -0.048575         1.118614
 H        -0.133574         1.566818         0.377214
 H        -0.653411        -0.043733        -0.744070
 H         3.960052        -1.258413         0.127921
 H         2.160325        -0.117829         1.934570
 H         2.388093         2.649008         1.709113
 H         4.047636         1.762400         1.502441
 H         2.665896         2.370042        -2.062265
 H         4.176574         1.740188        -1.632575
 H         2.198349        -0.243189        -1.944368
