19
Iteration:  2383
 C        -0.118054         0.403404        -0.126145
 C         1.393168         0.147986         0.001937
 O         1.826247        -1.327695         0.092473
 C         3.125709        -0.454331         0.076771
 C         2.554810         0.511947         1.143146
 C         3.180772         1.945685         1.122298
 O         2.667454         2.522222        -0.015471
 C         2.994999         1.830926        -1.221714
 C         2.572395         0.382131        -1.066380
 H        -0.584578        -0.022610         0.847013
 H        -0.324583         1.489552        -0.216113
 H        -0.504194         0.072921        -1.102588
 H         4.108798        -0.951757         0.201744
 H         2.324587         0.163845         2.160350
 H         2.649984         2.539279         1.907772
 H         4.340366         1.947647         1.032955
 H         2.389076         2.342994        -2.047228
 H         4.124781         1.803131        -1.233123
 H         2.373162        -0.163419        -2.030195
