19
Iteration:  2698charge 0 multiplicity 1
 C        -0.153339         0.332206        -0.000601
 C         1.367889         0.207107         0.053793
 O         1.887876        -1.351563         0.138900
 C         3.101754        -0.457091         0.055000
 C         2.510060         0.441999         1.136192
 C         2.976118         1.935070         1.080275
 O         2.818473         2.616546        -0.109076
 C         3.101852         1.858936        -1.281195
 C         2.530227         0.380603        -1.059621
 H        -0.575497        -0.258501         0.832368
 H        -0.298493         1.447484         0.158835
 H        -0.498539        -0.000177        -0.968809
 H         4.018092        -0.893724        -0.119908
 H         2.380473         0.129183         2.193220
 H         2.523376         2.484480         1.906897
 H         4.089569         2.006182         1.334473
 H         2.671254         2.216286        -2.190894
 H         4.171896         1.974165        -1.582316
 H         2.248085        -0.180945        -1.937022
