19
Iteration:  2700
 C        -0.157939         0.329479         0.000858
 C         1.361078         0.197743         0.054780
 O         1.882335        -1.364934         0.137150
 C         3.103576        -0.461364         0.061305
 C         2.484576         0.441428         1.129180
 C         2.990929         1.956669         1.082745
 O         2.829550         2.612659        -0.109740
 C         3.081798         1.863372        -1.280619
 C         2.561072         0.374599        -1.056367
 H        -0.614774        -0.199628         0.855865
 H        -0.309491         1.511505         0.192584
 H        -0.503161         0.004363        -0.996010
 H         4.166458        -0.930758        -0.157822
 H         2.397321         0.173917         2.178783
 H         2.505792         2.445983         1.884838
 H         4.112485         2.008701         1.296487
 H         2.661244         2.201654        -2.155415
 H         4.134597         2.101409        -1.554572
 H         2.204760        -0.155648        -1.975388
