19
Iteration:  4277charge 0 multiplicity 1
 C        -0.028691         0.492876        -0.079779
 C         1.434997         0.135823         0.002695
 O         1.890568        -1.349983         0.191215
 C         3.067271        -0.449998         0.158976
 C         2.502838         0.459198         1.105776
 C         3.088904         1.910405         1.093752
 O         2.711762         2.569958        -0.122278
 C         2.972052         1.809779        -1.306527
 C         2.539361         0.323090        -1.022506
 H        -0.652089         0.331927         0.828726
 H        -0.114433         1.706266        -0.051948
 H        -0.422478         0.023345        -0.977950
 H         4.179639        -0.825582         0.094904
 H         2.333510        -0.106300         2.048088
 H         2.503759         2.595670         1.929937
 H         4.135967         2.016069         1.106817
 H         2.244595         2.319490        -2.086148
 H         4.121864         1.978575        -1.536806
 H         2.356910        -0.190168        -1.974801
