19
Iteration:  1582
 C        -0.140082         0.511461         0.114917
 C         1.400444         0.094935         0.022447
 O         1.900156        -1.341155         0.018835
 C         3.113940        -0.551785         0.066524
 C         2.455011         0.402465         1.067259
 C         2.924180         1.893157         1.158848
 O         2.797940         2.664849        -0.123021
 C         3.065606         1.862230        -1.237431
 C         2.612967         0.401446        -1.072848
 H        -0.325075         0.223584         1.248532
 H        -0.270316         1.465282        -0.187944
 H        -0.793588        -0.159074        -0.596587
 H         4.094570        -0.983594         0.037088
 H         2.469040        -0.139055         2.084745
 H         2.133880         2.416124         1.562677
 H         3.995781         1.967066         1.611962
 H         2.785287         2.514240        -2.097082
 H         4.222445         1.769960        -1.461239
 H         2.578941        -0.070116        -2.067230
