19
Iteration:  1259
 C        -0.027222         0.415619         0.111645
 C         1.373327         0.165461        -0.084338
 O         1.846919        -1.294293        -0.061918
 C         3.087042        -0.491874         0.050554
 C         2.427934         0.524493         1.100922
 C         3.049165         1.976660         1.196976
 O         2.727061         2.597312        -0.086496
 C         3.072183         1.745542        -1.181891
 C         2.593991         0.343675        -1.068848
 H        -0.180010         0.155390         1.127794
 H        -0.372416         1.586676         0.052848
 H        -0.594029        -0.282685        -0.473728
 H         4.020477        -0.872578         0.132456
 H         2.236479        -0.081463         2.009286
 H         2.365536         2.558340         1.894084
 H         4.074476         1.863710         1.596930
 H         2.763696         2.164166        -2.154101
 H         4.241885         1.610158        -1.335107
 H         2.584890        -0.151590        -2.076665
