19
Iteration:  2593charge 0 multiplicity 1
 C        -0.051654         0.563357        -0.079313
 C         1.407880         0.121517         0.041521
 O         1.918773        -1.315284         0.137621
 C         3.175007        -0.533116         0.118280
 C         2.551849         0.472923         1.059866
 C         2.969224         1.886594         1.132926
 O         2.715761         2.574129        -0.024231
 C         2.963816         1.841522        -1.280045
 C         2.521580         0.333309        -1.106295
 H        -0.499427         0.278138         0.822968
 H        -0.082086         1.668349        -0.317865
 H        -0.456273        -0.042116        -0.880820
 H         4.174090        -1.116451        -0.005046
 H         2.423351         0.122631         2.073697
 H         2.412523         2.428071         1.933901
 H         4.070280         1.961519         1.316932
 H         2.160688         2.262356        -1.922911
 H         4.004561         1.904659        -1.505480
 H         2.433417        -0.293640        -2.060326
