19
Iteration:  3145
 C        -0.068626         0.394682         0.054180
 C         1.444256         0.126290         0.000317
 O         1.827262        -1.343902         0.125461
 C         3.140916        -0.465037         0.124321
 C         2.496888         0.507551         1.135851
 C         2.959256         1.885126         1.099795
 O         2.841480         2.623813        -0.141761
 C         2.984800         1.807950        -1.345356
 C         2.561089         0.420352        -1.032439
 H        -0.536397         0.229345         1.050637
 H        -0.383773         1.515261        -0.405968
 H        -0.468772        -0.375281        -0.629878
 H         4.144636        -0.951501         0.077003
 H         2.162731         0.079406         2.112761
 H         2.497626         2.651023         1.874133
 H         4.077652         1.919182         1.421129
 H         2.406240         2.316617        -2.105775
 H         4.021927         1.820683        -1.805913
 H         2.404142        -0.256079        -1.858638
