19
Iteration:   379charge 0 multiplicity 1
 C         0.009024         0.479748         0.137856
 C         1.381036         0.173559        -0.014049
 O         1.854634        -1.313626         0.023807
 C         3.107461        -0.486264         0.051604
 C         2.525167         0.455073         1.096789
 C         2.914083         1.872963         1.148252
 O         2.774532         2.612921        -0.058277
 C         3.091457         1.793262        -1.285091
 C         2.565557         0.371551        -1.117612
 H        -0.393892         0.400681         1.130503
 H        -0.329498         1.549648        -0.168605
 H        -0.588361        -0.066019        -0.466026
 H         4.012411        -1.055865        -0.008555
 H         2.286726        -0.125794         2.009935
 H         2.231108         2.372808         1.800583
 H         3.933229         1.779692         1.599562
 H         2.461210         2.249072        -2.084614
 H         4.114423         1.934210        -1.550437
 H         2.330697        -0.194648        -2.018985
