19
Iteration:  3622
 C        -0.155075         0.455250        -0.052001
 C         1.395203         0.131955         0.065138
 O         1.872286        -1.318490         0.188403
 C         3.177271        -0.491936         0.051449
 C         2.578950         0.438053         1.160743
 C         3.062548         2.054608         1.098901
 O         2.685438         2.582091        -0.146979
 C         3.078886         1.727491        -1.267093
 C         2.506848         0.364592        -1.053324
 H        -0.775639        -0.051974         0.657764
 H        -0.068847         1.489618         0.183237
 H        -0.431015         0.393311        -1.085192
 H         3.990157        -1.173181         0.019454
 H         2.472279         0.044895         2.173392
 H         2.424520         2.717781         1.733864
 H         4.147714         2.036166         1.142591
 H         2.447626         2.178128        -2.072284
 H         4.127534         1.703704        -1.531332
 H         2.251862        -0.167844        -2.016757
