19
Iteration:  2957charge 0 multiplicity 1
 C        -0.017431         0.317801         0.034171
 C         1.463504         0.161927         0.048799
 O         1.810588        -1.329791         0.096713
 C         3.125300        -0.461297         0.109425
 C         2.433470         0.562892         1.052037
 C         3.062208         1.947522         1.083556
 O         2.739863         2.594481        -0.084284
 C         3.049132         1.798114        -1.202721
 C         2.519586         0.382061        -1.129078
 H        -0.594153         0.283407         1.050896
 H        -0.215610         1.345358        -0.259304
 H        -0.681548        -0.336619        -0.688158
 H         4.080341        -1.015009         0.268731
 H         2.168347         0.219901         2.043844
 H         2.772399         2.585238         1.968606
 H         4.226433         1.757580         1.116385
 H         2.580318         2.192337        -2.029096
 H         4.105299         1.789655        -1.621297
 H         2.365431        -0.014179        -2.094758
