19
Iteration:  3077charge 0 multiplicity 1
 C         0.015481         0.362755        -0.007672
 C         1.419438         0.144011         0.045512
 O         1.823500        -1.285113         0.148120
 C         3.069239        -0.512798         0.156923
 C         2.572423         0.520936         1.075705
 C         3.005652         1.952119         1.052216
 O         2.737107         2.585822        -0.116960
 C         3.019277         1.833391        -1.307646
 C         2.476722         0.394839        -1.041097
 H        -0.494112        -0.353793         0.726755
 H        -0.365512         1.425563         0.224759
 H        -0.308689         0.065935        -1.073827
 H         4.060463        -1.154000         0.150582
 H         2.235675         0.313188         2.120560
 H         2.639580         2.390875         1.986029
 H         4.157858         1.740350         1.172344
 H         2.692533         2.359482        -2.159543
 H         4.163573         1.739184        -1.429879
 H         2.550262        -0.126806        -1.994150
