19
Iteration:  4708
 C         0.026876         0.437689         0.056854
 C         1.377434         0.074862         0.053990
 O         1.859757        -1.273501         0.124635
 C         3.132055        -0.450895         0.114997
 C         2.427084         0.478450         1.150552
 C         2.956252         1.911788         1.099541
 O         2.750688         2.593977        -0.211399
 C         3.121110         1.832816        -1.288000
 C         2.517788         0.320461        -1.105623
 H        -0.440482         0.224113         1.083460
 H         0.047315         1.577510        -0.094496
 H        -0.753591        -0.050274        -0.590050
 H         3.995453        -1.100041         0.239067
 H         2.131126        -0.024865         2.122829
 H         2.392644         2.509247         1.819381
 H         4.145150         2.154157         1.391265
 H         2.596904         2.312201        -2.185653
 H         4.204610         1.761296        -1.417465
 H         2.455367        -0.203704        -2.064221
