19
Iteration:  4139
 C        -0.045231         0.340029        -0.092999
 C         1.425956         0.167576         0.026982
 O         1.865508        -1.233632         0.204604
 C         3.099723        -0.482123         0.120694
 C         2.546774         0.513201         1.118467
 C         3.078552         1.943657         1.209699
 O         2.864184         2.577422        -0.155467
 C         2.955830         1.715635        -1.300595
 C         2.371562         0.392585        -1.098206
 H        -0.777002         0.036854         0.758446
 H        -0.230541         1.451963        -0.125168
 H        -0.276296        -0.283731        -1.050978
 H         4.096084        -0.908488         0.157880
 H         2.286527         0.145396         2.143493
 H         2.382354         2.440663         1.841031
 H         4.115266         2.144063         1.308815
 H         2.329459         2.279799        -2.027209
 H         4.110304         1.802839        -1.623703
 H         2.340173        -0.145689        -2.064713
