19
Iteration:  1045charge 0 multiplicity 1
 C         0.038138         0.425237         0.105036
 C         1.414280         0.124410        -0.052980
 O         1.860555        -1.272488         0.027491
 C         3.061336        -0.454328         0.089338
 C         2.383360         0.486765         1.065583
 C         2.963241         1.879236         1.153835
 O         2.801038         2.577939        -0.060653
 C         3.098974         1.824227        -1.243763
 C         2.546262         0.392363        -1.105827
 H        -0.367576         0.086964         1.152387
 H        -0.244993         1.453920        -0.029824
 H        -0.461419        -0.203560        -0.682335
 H         3.991172        -1.116625         0.194263
 H         2.118396        -0.006267         1.955622
 H         2.370732         2.482160         1.822548
 H         4.058474         1.849399         1.483578
 H         2.451812         2.351961        -1.907222
 H         4.088131         1.798393        -1.714329
 H         2.589532        -0.164972        -1.974311
