19
Iteration:  3882charge 0 multiplicity 1
 C         0.036031         0.440327         0.081684
 C         1.407514         0.104064        -0.024578
 O         1.797992        -1.327973         0.131360
 C         3.177189        -0.485949         0.170269
 C         2.480436         0.514801         1.076067
 C         2.977923         1.928882         1.065638
 O         2.745542         2.649731        -0.148168
 C         3.070691         1.815200        -1.231475
 C         2.536253         0.268780        -1.102657
 H        -0.530025         0.368699         1.047685
 H        -0.061467         1.560935        -0.131670
 H        -0.599352        -0.046632        -0.716853
 H         4.202058        -0.984916         0.332799
 H         1.940680         0.277413         1.981533
 H         2.378626         2.473942         1.728076
 H         3.995307         1.884296         1.229577
 H         2.470166         2.341982        -2.032316
 H         4.192933         1.835440        -1.668830
 H         2.329122        -0.344690        -2.011947
