19
Iteration:  2240
 C        -0.085214         0.326628        -0.084916
 C         1.387118         0.145120         0.055133
 O         1.865217        -1.265483         0.133948
 C         3.105495        -0.459124         0.052138
 C         2.529352         0.485657         1.144285
 C         3.082244         1.892236         1.180591
 O         2.755752         2.606102        -0.088226
 C         3.133687         1.835278        -1.245858
 C         2.417072         0.379061        -1.136937
 H        -0.693617        -0.101017         0.839096
 H        -0.225668         1.398360        -0.105054
 H        -0.385776        -0.060182        -1.122961
 H         4.062805        -1.025198         0.176593
 H         2.252427        -0.056276         2.089963
 H         2.440500         2.531690         1.938646
 H         4.116998         1.975545         1.267062
 H         2.661403         2.555251        -2.051984
 H         4.215041         1.686799        -1.336364
 H         2.030415        -0.061316        -2.089277
