19
Iteration:   466charge 0 multiplicity 1
 C        -0.056273         0.414641        -0.122679
 C         1.411323         0.139593         0.069150
 O         1.783812        -1.283439         0.117785
 C         3.156876        -0.412081         0.029703
 C         2.586152         0.472265         1.143613
 C         3.163974         1.891557         1.246753
 O         2.732689         2.622147        -0.056694
 C         2.942360         1.770198        -1.263629
 C         2.458843         0.350357        -1.142112
 H        -0.612912        -0.287737         0.494585
 H        -0.326457         1.583306         0.154267
 H        -0.155099         0.141225        -1.119164
 H         4.030164        -1.083166         0.062671
 H         2.495640        -0.013593         2.179085
 H         2.674114         2.512012         2.018246
 H         4.279655         1.835025         1.258358
 H         2.436476         2.275955        -2.157747
 H         4.048088         1.775213        -1.382069
 H         2.148947        -0.122521        -2.103131
