19
Iteration:  4987
 C        -0.086246         0.362140        -0.101306
 C         1.461142         0.159452         0.028797
 O         1.843019        -1.257540         0.190289
 C         3.091144        -0.569647         0.160794
 C         2.570670         0.460373         1.127328
 C         3.041823         2.014062         1.124741
 O         2.845877         2.651774        -0.190632
 C         2.949124         1.772984        -1.278997
 C         2.483774         0.381902        -1.026613
 H        -0.541877        -0.362026         0.532646
 H        -0.569594         1.390209         0.252017
 H        -0.392027         0.021122        -1.053577
 H         4.011221        -1.211942         0.130357
 H         2.352526         0.059056         2.078746
 H         2.697842         2.660916         1.912529
 H         4.168552         1.966507         1.411599
 H         2.275293         2.207957        -2.014929
 H         3.927905         1.586906        -1.772556
 H         2.161426        -0.045006        -1.977691
