19
Iteration:  3390charge 0 multiplicity 1
 C        -0.044581         0.412711        -0.004335
 C         1.434660         0.128457         0.011850
 O         1.816856        -1.346786         0.182550
 C         3.098183        -0.564590         0.083746
 C         2.503584         0.533453         1.117088
 C         3.088761         1.978471         1.096061
 O         2.722230         2.646678        -0.119812
 C         3.042780         1.857009        -1.259081
 C         2.538355         0.304462        -1.072097
 H        -0.463277         0.030350         0.967041
 H        -0.312193         1.407466        -0.180993
 H        -0.564367        -0.111878        -0.888784
 H         4.016474        -1.057825        -0.005072
 H         2.355418         0.041295         2.061677
 H         2.470051         2.637201         1.755962
 H         4.183024         2.124103         1.211853
 H         2.513750         2.256079        -2.179453
 H         4.162045         1.882383        -1.455066
 H         2.317199        -0.256657        -2.056316
