19
Iteration:   495
 C        -0.102208         0.526323         0.025501
 C         1.344089         0.125979         0.036708
 O         1.951258        -1.417688         0.058735
 C         3.085783        -0.477765         0.113522
 C         2.399010         0.470486         1.126107
 C         3.070009         1.826333         1.105504
 O         2.785285         2.664872        -0.099584
 C         2.974965         1.862606        -1.252511
 C         2.608736         0.391042        -1.104219
 H        -0.604659        -0.088912         0.812594
 H        -0.096129         1.512770         0.254625
 H        -0.483134         0.318766        -0.989830
 H         4.020184        -1.000331         0.297747
 H         2.369224         0.123562         2.128560
 H         2.718220         2.378207         1.962143
 H         4.140167         1.602794         1.200716
 H         2.382273         2.154675        -2.113279
 H         4.027402         1.968395        -1.564278
 H         2.422979        -0.074827        -2.035985
