19
Iteration:   815charge 0 multiplicity 1
 C        -0.007762         0.398890        -0.091490
 C         1.448545         0.110195         0.022188
 O         1.888688        -1.331549         0.038096
 C         3.111554        -0.428475         0.091571
 C         2.343544         0.504578         1.129790
 C         3.142800         1.881309         1.131972
 O         2.832575         2.606066        -0.022264
 C         2.909600         1.829012        -1.281624
 C         2.477116         0.400298        -1.068665
 H        -0.365528        -0.113504         0.795729
 H        -0.055526         1.601097         0.214808
 H        -0.568199         0.127533        -0.933620
 H         4.099266        -0.906615         0.522808
 H         2.217973         0.204005         2.233686
 H         2.626603         2.561433         1.855406
 H         4.183761         1.519365         1.408045
 H         2.216394         2.236973        -1.961744
 H         3.944485         1.812415        -1.702217
 H         2.303461        -0.233575        -1.986977
