19
Iteration:  2408
 C        -0.001714         0.363865        -0.029345
 C         1.450762         0.164432        -0.013092
 O         1.869635        -1.264780         0.083087
 C         3.108425        -0.508250         0.114919
 C         2.395496         0.422055         1.157747
 C         3.032936         1.841742         1.070101
 O         2.763776         2.691263        -0.078760
 C         2.991129         1.821502        -1.222385
 C         2.560656         0.412502        -1.054233
 H        -0.326317         0.005636         0.916175
 H        -0.179195         1.472942        -0.273543
 H        -0.524426        -0.113465        -0.860608
 H         3.975671        -1.031765         0.250620
 H         2.107469        -0.023972         2.102442
 H         2.822979         2.515095         2.020553
 H         4.099799         1.682622         0.939972
 H         2.349169         2.304623        -2.096977
 H         4.011000         1.788599        -1.386809
 H         2.322972        -0.082827        -2.055350
