19
Iteration:  3730
 C        -0.118843         0.391213        -0.067326
 C         1.367020         0.103218         0.075232
 O         1.869858        -1.229103         0.191150
 C         3.163801        -0.540501         0.084688
 C         2.591906         0.526742         1.054764
 C         2.972419         1.952863         1.156485
 O         2.859609         2.623214        -0.172785
 C         2.971769         1.797959        -1.219867
 C         2.501819         0.320840        -1.085701
 H        -0.750480         0.158465         0.868792
 H        -0.185873         1.487616        -0.431130
 H        -0.654313        -0.366137        -0.816260
 H         4.220178        -1.208751         0.067032
 H         2.438215         0.244035         2.051670
 H         2.648072         2.558750         2.019208
 H         3.919509         1.949754         1.564848
 H         2.322141         2.238703        -2.063260
 H         4.019597         1.853076        -1.636970
 H         2.203544        -0.295096        -1.987177
