19
Iteration:  1221charge 0 multiplicity 1
 C        -0.002956         0.440045         0.009191
 C         1.425909         0.173252         0.070400
 O         1.858453        -1.350287         0.111928
 C         3.090623        -0.516997        -0.043048
 C         2.438078         0.425337         1.086098
 C         2.958032         1.842378         1.183512
 O         2.796975         2.650171        -0.080137
 C         3.070546         1.826327        -1.261962
 C         2.495111         0.437687        -1.077506
 H        -0.604311         0.271281         0.966142
 H        -0.071383         1.355257        -0.294578
 H        -0.504604        -0.126450        -0.816562
 H         4.187720        -1.013970        -0.052340
 H         2.397070        -0.003447         2.088672
 H         2.443120         2.468632         1.921223
 H         3.943990         2.054966         1.423277
 H         2.556376         2.394258        -2.050979
 H         4.257794         1.829051        -1.292112
 H         2.446778        -0.015458        -2.092687
