19
Iteration:  2789
 C         0.052928         0.420190         0.015412
 C         1.459750         0.118799         0.068683
 O         1.822946        -1.373054         0.148658
 C         3.092803        -0.527438         0.025833
 C         2.563680         0.534465         1.049588
 C         2.970407         2.000968         1.111566
 O         2.676599         2.630951        -0.108103
 C         3.052691         1.761263        -1.177369
 C         2.460315         0.399946        -1.088199
 H        -0.700045         0.164544         0.803412
 H        -0.015390         1.533093        -0.467429
 H        -0.296930        -0.271792        -0.836191
 H         4.130353        -1.060917        -0.175219
 H         2.375490        -0.060242         1.944369
 H         2.742866         2.610461         1.933120
 H         4.096649         2.009871         1.355670
 H         2.676449         2.362990        -1.972478
 H         4.217466         1.774042        -1.327856
 H         2.188138        -0.136695        -2.059144
