19
Iteration:   583charge 0 multiplicity 1
 C        -0.019231         0.422930         0.028792
 C         1.408630         0.151867         0.044982
 O         1.840047        -1.393572         0.050382
 C         3.146697        -0.476813         0.005946
 C         2.444400         0.523529         1.070243
 C         3.057203         1.920203         1.175158
 O         2.729115         2.649701        -0.091725
 C         3.091495         1.806316        -1.189735
 C         2.450955         0.344800        -1.091451
 H        -0.592579         0.316018         0.960333
 H        -0.235427         1.408428        -0.259757
 H        -0.513192        -0.178441        -0.727731
 H         4.135345        -0.967907        -0.020228
 H         2.440670         0.149766         2.086878
 H         2.515178         2.486236         1.914694
 H         4.165666         1.958536         1.333247
 H         2.896879         2.402351        -2.092929
 H         4.157649         1.706293        -1.144971
 H         2.202820        -0.144828        -2.009116
