19
Iteration:  3412charge 0 multiplicity 1
 C         0.061128         0.422025        -0.086577
 C         1.474243         0.146397         0.115664
 O         1.854630        -1.234795         0.164685
 C         3.118818        -0.478686         0.077346
 C         2.554099         0.511719         1.077438
 C         3.049435         1.900968         1.114113
 O         2.683373         2.628989        -0.140264
 C         2.961113         1.674928        -1.244536
 C         2.458357         0.390438        -1.023639
 H        -0.633958        -0.054409         0.668091
 H        -0.090186         1.443214        -0.015077
 H        -0.315926         0.262488        -1.167033
 H         3.955202        -1.134934         0.201465
 H         2.428365         0.001799         2.024174
 H         2.470503         2.532783         1.839410
 H         4.048222         1.933658         1.225068
 H         2.482299         2.101859        -2.199050
 H         4.077735         1.548535        -1.469253
 H         2.088939        -0.200071        -1.942938
