19
Iteration:  2436
 C        -0.120880         0.417525         0.035225
 C         1.367850         0.081587         0.010801
 O         1.913209        -1.306215         0.043029
 C         3.080497        -0.477749         0.058609
 C         2.517036         0.494167         1.077620
 C         2.958359         1.975989         1.214054
 O         2.851753         2.646641        -0.052431
 C         3.030278         1.789292        -1.245055
 C         2.551100         0.323879        -1.134916
 H        -0.648249        -0.006514         0.937710
 H        -0.051437         1.410292        -0.332635
 H        -0.689861        -0.055166        -0.792999
 H         4.065790        -1.141442         0.187035
 H         2.387965        -0.031755         2.051227
 H         2.400580         2.499373         1.919551
 H         3.999566         2.253908         1.577681
 H         2.397122         2.234421        -1.965587
 H         4.121990         1.905782        -1.662458
 H         2.415994        -0.220191        -2.057273
