19
Iteration:   431charge 0 multiplicity 1
 C        -0.004645         0.412805        -0.021644
 C         1.458598         0.128121         0.010795
 O         1.785975        -1.289836         0.104227
 C         3.145192        -0.553328         0.055343
 C         2.550043         0.448784         1.104776
 C         3.073261         1.857840         1.155215
 O         2.759917         2.684449        -0.086208
 C         2.987035         1.836977        -1.204054
 C         2.442361         0.413559        -1.115604
 H        -0.522337         0.001187         0.897817
 H        -0.370819         1.449740        -0.177266
 H        -0.469349        -0.098900        -0.839055
 H         4.075352        -1.114126         0.077670
 H         2.304325         0.013165         2.080555
 H         2.562470         2.431480         1.880146
 H         4.128234         1.865025         1.457395
 H         2.629598         2.395066        -2.113629
 H         4.097345         1.729940        -1.363045
 H         2.253238         0.030115        -2.098075
