19
Iteration:  4835
 C        -0.062264         0.480696        -0.070282
 C         1.451941         0.147805         0.027741
 O         1.902076        -1.331594         0.201591
 C         3.122224        -0.578035         0.154954
 C         2.456269         0.487203         1.153909
 C         3.081784         1.904751         1.093789
 O         2.724848         2.655649        -0.128468
 C         2.954044         1.860770        -1.342002
 C         2.547906         0.293542        -1.035115
 H        -0.501798         0.373797         0.868781
 H        -0.245176         1.490300        -0.533249
 H        -0.553876        -0.094084        -0.789011
 H         4.154353        -1.036649         0.182577
 H         2.095363         0.248275         2.109235
 H         2.650348         2.487397         1.978112
 H         4.274165         1.810535         0.991283
 H         2.348790         2.191071        -2.148696
 H         4.036926         2.060962        -1.805714
 H         2.333619        -0.328234        -1.903673
