19
Iteration:   522charge 0 multiplicity 1
 C        -0.010459         0.448835         0.084458
 C         1.406452         0.125981        -0.061593
 O         1.829866        -1.262043         0.006105
 C         3.134314        -0.543166         0.104237
 C         2.465259         0.485205         1.099042
 C         2.977304         1.910047         1.140425
 O         2.780510         2.586090        -0.104465
 C         2.993584         1.812953        -1.218477
 C         2.592799         0.375691        -1.075691
 H        -0.164568         0.078972         1.087601
 H         0.033139         1.656442         0.101449
 H        -0.713857         0.027898        -0.632939
 H         4.072487        -1.155868         0.128009
 H         2.310132         0.111093         2.171302
 H         2.351792         2.434904         1.914343
 H         3.956312         1.941696         1.616637
 H         2.404380         2.129382        -2.129849
 H         4.062911         1.913983        -1.580432
 H         2.455077        -0.159180        -2.069853
