19
Iteration:  2788
 C         0.055935         0.424243         0.006693
 C         1.448969         0.119844         0.068917
 O         1.820669        -1.381392         0.149394
 C         3.112083        -0.523428         0.024708
 C         2.567309         0.530512         1.046422
 C         2.973898         2.003824         1.116967
 O         2.680790         2.627414        -0.112629
 C         3.047166         1.759218        -1.176837
 C         2.450813         0.405622        -1.080020
 H        -0.678050         0.152080         0.781034
 H        -0.037642         1.553836        -0.484012
 H        -0.304364        -0.264169        -0.817333
 H         4.110399        -1.072743        -0.146663
 H         2.361965        -0.058015         1.956458
 H         2.740247         2.601884         1.956989
 H         4.111779         2.038384         1.362680
 H         2.633330         2.378365        -2.000934
 H         4.223869         1.779876        -1.310151
 H         2.180242        -0.134359        -2.055566
