19
Iteration:  4617
 C        -0.125814         0.452919        -0.010407
 C         1.428193         0.152122         0.019050
 O         1.969225        -1.346020         0.135771
 C         3.097869        -0.573085         0.202144
 C         2.422565         0.544014         1.066247
 C         3.083455         1.952268         1.081302
 O         2.744182         2.596553        -0.169612
 C         2.993641         1.813466        -1.258703
 C         2.506653         0.390348        -1.071028
 H        -0.419146        -0.117582         0.863262
 H        -0.073792         1.636079        -0.045122
 H        -0.695395         0.151557        -0.870152
 H         3.946271        -1.335629         0.403057
 H         2.287124         0.274928         2.106483
 H         2.720811         2.524615         1.861102
 H         4.275379         1.880886         1.296017
 H         2.357751         2.282112        -2.028963
 H         4.034529         1.750571        -1.562459
 H         2.518293        -0.289607        -1.919228
