19
Iteration:  4629charge 0 multiplicity 1
 C        -0.036046         0.467976        -0.048227
 C         1.413389         0.133649        -0.035668
 O         1.855740        -1.325719         0.136910
 C         3.150040        -0.563760         0.197358
 C         2.528259         0.535168         1.118485
 C         3.063491         1.939846         1.074249
 O         2.726107         2.632246        -0.112694
 C         2.931949         1.782316        -1.306789
 C         2.553763         0.324425        -0.993998
 H        -0.580936         0.168980         0.850283
 H        -0.325161         1.550450         0.035777
 H        -0.494931        -0.022935        -0.882931
 H         4.204075        -0.991555         0.167990
 H         2.101848         0.224412         2.064806
 H         2.742376         2.520415         1.843952
 H         4.236260         1.855088         1.092103
 H         2.394601         2.234328        -2.167124
 H         3.989038         1.859596        -1.603736
 H         2.410183        -0.189912        -1.942255
