19
Iteration:  4928charge 0 multiplicity 1
 C        -0.026176         0.457307         0.138859
 C         1.380946         0.147338         0.006508
 O         1.933337        -1.371032         0.075352
 C         3.069879        -0.460568         0.149567
 C         2.449606         0.555896         1.114785
 C         2.936817         1.983000         1.071725
 O         2.783181         2.597948        -0.195347
 C         3.109031         1.715733        -1.239285
 C         2.500561         0.330365        -1.084395
 H        -0.485446        -0.138512         0.985346
 H        -0.215661         1.489695         0.146997
 H        -0.566316         0.252293        -0.828208
 H         4.089180        -0.794413         0.134043
 H         2.137856         0.111857         2.129048
 H         2.376367         2.594053         1.663638
 H         4.077021         1.939671         1.325207
 H         2.786525         2.371276        -2.119664
 H         4.253652         1.636779        -1.524640
 H         2.281217        -0.294347        -1.979274
