19
Iteration:  1163
 C         0.014855         0.433353        -0.097316
 C         1.430467         0.114503         0.025289
 O         1.877000        -1.323530         0.075791
 C         3.109766        -0.523479         0.115582
 C         2.378144         0.462845         1.153199
 C         3.100658         1.826567         1.069848
 O         2.758239         2.617695        -0.046020
 C         2.951301         1.913556        -1.234868
 C         2.487238         0.443658        -1.058046
 H        -0.465700        -0.042334         0.654321
 H        -0.104677         1.552164         0.134594
 H        -0.349829         0.180347        -1.016234
 H         4.002432        -1.080570         0.415998
 H         2.432848         0.132133         2.183623
 H         2.837547         2.275213         1.946526
 H         4.156576         1.643738         0.976254
 H         2.451765         2.386283        -2.083243
 H         4.097506         1.916680        -1.586169
 H         2.349277        -0.170845        -1.876988
