19
Iteration:   886
 C        -0.011528         0.452118         0.035624
 C         1.456041         0.141699         0.067379
 O         1.880584        -1.274161         0.096118
 C         3.087013        -0.483946        -0.046722
 C         2.532824         0.464044         1.034807
 C         2.928397         1.951060         1.140285
 O         2.730395         2.564918        -0.072797
 C         3.143913         1.755300        -1.164037
 C         2.438738         0.405347        -1.081491
 H        -0.561186         0.097819         0.913332
 H        -0.196540         1.479125        -0.105344
 H        -0.434990        -0.201019        -0.799949
 H         4.035744        -1.019057        -0.196498
 H         2.462605         0.004483         2.038292
 H         2.219202         2.404473         1.842743
 H         4.009000         2.003936         1.428608
 H         2.888264         2.363497        -2.172992
 H         4.246149         1.461264        -1.244502
 H         1.897613         0.078178        -1.997512
