19
Iteration:  1211
 C        -0.012730         0.439524        -0.056086
 C         1.453825         0.175771        -0.003259
 O         1.816863        -1.356759         0.115874
 C         3.106637        -0.489181        -0.002196
 C         2.592222         0.469312         1.079720
 C         2.993358         1.941607         1.208884
 O         2.788893         2.601892        -0.039189
 C         3.017250         1.815348        -1.186530
 C         2.440346         0.399038        -1.109678
 H        -0.610712         0.213626         0.900382
 H        -0.139165         1.422751        -0.230130
 H        -0.389124        -0.188008        -0.924559
 H         4.113458        -1.060424        -0.114540
 H         2.260594         0.002338         2.017314
 H         2.294701         2.380628         1.981882
 H         4.017717         1.971477         1.537060
 H         2.579084         2.352959        -2.055873
 H         4.159181         1.686196        -1.545068
 H         2.178186        -0.168676        -2.052068
