19
Iteration:    38charge 0 multiplicity 1
 C        -0.029940         0.371520         0.000792
 C         1.398689         0.131065        -0.003279
 O         1.859699        -1.251629         0.118506
 C         3.062301        -0.556011        -0.034922
 C         2.560785         0.469914         1.131298
 C         2.986791         1.915106         1.175363
 O         2.798169         2.595674        -0.080406
 C         3.093881         1.826647        -1.230795
 C         2.442939         0.454792        -1.061791
 H        -0.454248         0.335367         1.028507
 H        -0.173914         1.459436        -0.204528
 H        -0.666094        -0.356684        -0.766298
 H         3.958449        -1.267141        -0.233492
 H         2.370885        -0.189712         2.117056
 H         2.287403         2.513200         1.827928
 H         4.072022         2.055732         1.466410
 H         2.789358         2.452980        -2.134862
 H         4.218116         1.696004        -1.415531
 H         2.133987        -0.007340        -2.104200
