19
Iteration:     9charge 0 multiplicity 1
 C        -0.090093         0.427936         0.018626
 C         1.407261         0.216072         0.067741
 O         1.818729        -1.260657         0.057833
 C         3.128605        -0.451323         0.027994
 C         2.533273         0.477169         1.049255
 C         3.036620         1.912629         1.145635
 O         2.774141         2.532229        -0.056332
 C         3.030731         1.828164        -1.216661
 C         2.519768         0.314617        -1.092845
 H        -0.528944        -0.057159         0.911605
 H        -0.201884         1.571321        -0.214669
 H        -0.278363        -0.074645        -0.804539
 H         4.033867        -0.934963         0.085142
 H         2.518995        -0.169359         1.823302
 H         2.414449         2.365978         1.922587
 H         4.049766         1.987644         1.533500
 H         2.514132         2.289027        -2.014673
 H         4.102279         1.628264        -1.352648
 H         2.339015        -0.101233        -2.002676
