19
Iteration:  4483charge 0 multiplicity 1
 C         0.078202         0.422861        -0.064690
 C         1.466971         0.097225         0.026292
 O         1.756555        -1.295411         0.172276
 C         3.129118        -0.534661         0.123894
 C         2.499706         0.509896         1.128504
 C         3.098492         1.944093         1.070496
 O         2.686579         2.647228        -0.097012
 C         2.954211         1.779977        -1.308763
 C         2.552140         0.352148        -1.075766
 H        -0.383527         0.249257         0.918627
 H        -0.192905         1.481780        -0.297418
 H        -0.410765        -0.138186        -0.891921
 H         4.134644        -0.918749         0.240635
 H         2.355193         0.185572         2.178584
 H         2.590113         2.373621         1.863913
 H         4.146028         2.017904         1.257729
 H         2.333193         2.167314        -2.066852
 H         4.122448         1.809618        -1.360700
 H         2.111450        -0.165200        -1.937577
