19
Iteration:  2520charge 0 multiplicity 1
 C        -0.026941         0.350053         0.043760
 C         1.445055         0.113689        -0.048152
 O         1.849956        -1.272883         0.092725
 C         3.119097        -0.463866         0.101017
 C         2.364715         0.515592         1.123096
 C         3.019351         1.853298         1.155646
 O         2.771817         2.582354        -0.082987
 C         3.059190         1.876379        -1.319355
 C         2.549712         0.441066        -1.120222
 H        -0.341766        -0.142375         1.028100
 H        -0.252214         1.406398         0.220864
 H        -0.527125        -0.112800        -0.864810
 H         3.970052        -1.182104         0.235413
 H         2.201878         0.139353         2.183954
 H         2.593303         2.494195         2.043392
 H         4.101522         1.748443         1.145863
 H         2.622146         2.456701        -2.241684
 H         4.195622         1.841132        -1.306983
 H         2.369916        -0.280308        -1.925837
