19
Iteration:  1535charge 0 multiplicity 1
 C        -0.161152         0.452766        -0.053596
 C         1.459951         0.189964         0.041553
 O         1.854543        -1.326065         0.131371
 C         3.135546        -0.466779         0.045295
 C         2.579884         0.423915         1.073403
 C         3.058420         1.858634         1.142200
 O         2.694101         2.583596        -0.053266
 C         3.044149         1.814788        -1.215533
 C         2.560007         0.416925        -1.072007
 H        -0.757389        -0.057303         0.714127
 H        -0.392054         1.633068        -0.218255
 H        -0.390749         0.098223        -1.048473
 H         4.020133        -1.055925         0.159521
 H         2.297616        -0.067027         2.026707
 H         2.535180         2.519521         1.949355
 H         4.149393         1.898886         1.120645
 H         2.404500         2.270406        -2.085003
 H         4.096797         2.064691        -1.491896
 H         2.383516        -0.159102        -1.997831
