19
Iteration:  2354charge 0 multiplicity 1
 C         0.021272         0.441853        -0.128401
 C         1.449460         0.173916         0.089782
 O         1.845237        -1.314876         0.136118
 C         3.122725        -0.545557         0.026746
 C         2.554728         0.493934         1.055863
 C         3.055729         1.896005         1.168015
 O         2.673328         2.651771        -0.044668
 C         2.986750         1.804538        -1.258748
 C         2.501795         0.337109        -1.035454
 H        -0.609340         0.066736         0.601796
 H        -0.213711         1.554990        -0.019389
 H        -0.141004         0.065916        -1.125781
 H         4.017834        -1.093003         0.043635
 H         2.352256         0.142870         2.061525
 H         2.366449         2.303766         2.025374
 H         4.095306         1.938112         1.360164
 H         2.520845         2.379375        -2.153778
 H         4.083320         1.738662        -1.353635
 H         2.165889        -0.158221        -2.004337
