19
Iteration:  3358
 C        -0.069667         0.417327         0.080172
 C         1.447966         0.111892         0.034008
 O         1.895684        -1.289280         0.061011
 C         3.133282        -0.403040         0.127941
 C         2.362711         0.513500         1.111130
 C         3.004217         1.939808         1.046271
 O         2.798219         2.579558        -0.124667
 C         3.052227         1.777078        -1.266364
 C         2.540953         0.324929        -1.087299
 H        -0.544713         0.491174         1.103263
 H        -0.352733         1.343697        -0.297170
 H        -0.642772        -0.430640        -0.446091
 H         4.013665        -0.891361         0.128126
 H         2.232382         0.072369         2.096285
 H         2.524913         2.651436         1.795916
 H         4.246200         1.757638         1.436896
 H         2.628449         2.409954        -2.104642
 H         4.136681         1.734928        -1.419780
 H         2.243302        -0.409689        -1.921121
