19
Iteration:  3834charge 0 multiplicity 1
 C        -0.036785         0.546037         0.008595
 C         1.396852         0.123213         0.054713
 O         1.818598        -1.349818         0.165485
 C         3.173100        -0.479986         0.052474
 C         2.580269         0.490924         1.070189
 C         2.947675         1.972772         1.098114
 O         2.693773         2.591095        -0.149416
 C         3.090335         1.712231        -1.299316
 C         2.544525         0.361323        -1.027750
 H        -0.512877        -0.031253         0.828718
 H        -0.336003         1.537006         0.149598
 H        -0.548260         0.156728        -0.896152
 H         4.092204        -1.007730         0.061627
 H         2.656694         0.140643         2.176324
 H         2.100092         2.394214         1.777247
 H         3.888254         2.147119         1.446831
 H         2.843087         2.266795        -2.181860
 H         4.204394         1.625628        -1.267251
 H         2.306743        -0.258306        -1.930279
