19
Iteration:  3066
 C        -0.014857         0.404721         0.014072
 C         1.457785         0.175116         0.024727
 O         1.818047        -1.291792         0.086837
 C         3.157195        -0.475857         0.155765
 C         2.429509         0.480644         1.157196
 C         3.105330         1.912923         1.073478
 O         2.692878         2.589060        -0.173551
 C         3.030302         1.799775        -1.279660
 C         2.517672         0.376416        -1.047950
 H        -0.428385        -0.321106         0.798160
 H        -0.252036         1.470835         0.289162
 H        -0.494425         0.150727        -0.999674
 H         4.151195        -1.090784         0.248004
 H         2.318441        -0.047160         2.116256
 H         2.519011         2.573500         1.757016
 H         4.141709         2.171421         1.350478
 H         2.496073         2.258696        -2.074871
 H         4.149736         1.854288        -1.498605
 H         2.271297        -0.309447        -1.865130
