19
Iteration:  4816
 C        -0.008464         0.381858        -0.058861
 C         1.445095         0.152771         0.009057
 O         1.793237        -1.259670         0.188043
 C         3.093417        -0.496457         0.159577
 C         2.481045         0.529098         1.094287
 C         3.054503         1.925117         1.069225
 O         2.791704         2.594146        -0.138028
 C         2.890041         1.786235        -1.272727
 C         2.606416         0.354422        -1.028760
 H        -0.458223         0.023048         0.868327
 H        -0.184604         1.483064        -0.124686
 H        -0.245856        -0.225824        -0.932040
 H         3.985915        -1.116200         0.364986
 H         2.485226         0.086765         2.096705
 H         2.667076         2.485808         1.854790
 H         4.199496         1.865887         1.164155
 H         2.250531         2.167105        -2.079723
 H         3.929868         1.861861        -1.732584
 H         2.508742        -0.026263        -2.030057
