19
Iteration:  2042charge 0 multiplicity 1
 C        -0.148208         0.475321        -0.148700
 C         1.376721         0.155944         0.056799
 O         1.951139        -1.319890         0.104863
 C         3.179693        -0.570362         0.005422
 C         2.528099         0.462745         1.147763
 C         2.993166         1.976692         1.163887
 O         2.928759         2.675052        -0.073627
 C         2.922678         1.763516        -1.203196
 C         2.471196         0.348633        -1.024077
 H        -0.866452        -0.107614         0.501525
 H        -0.412912         1.436237         0.024852
 H        -0.469287        -0.011899        -1.083273
 H         4.011455        -1.084948        -0.197185
 H         2.379924        -0.093639         2.122569
 H         2.271035         2.411771         2.018824
 H         3.943986         2.170682         1.706552
 H         2.276325         2.310671        -1.995956
 H         3.839671         1.792132        -1.758321
 H         2.326916        -0.301537        -1.902651
