19
Iteration:  4495charge 0 multiplicity 1
 C        -0.092241         0.450754         0.007308
 C         1.426631         0.159065         0.016183
 O         1.860949        -1.269536         0.135821
 C         3.132904        -0.499571         0.151122
 C         2.526477         0.512518         1.084257
 C         3.029144         1.893015         1.070370
 O         2.714746         2.599366        -0.121156
 C         2.973747         1.786108        -1.280582
 C         2.580540         0.328631        -1.027580
 H        -0.601672         0.207080         0.924325
 H        -0.085149         1.549882        -0.268628
 H        -0.518978        -0.220091        -0.721526
 H         4.004991        -1.190192         0.176375
 H         2.347348         0.115280         2.088272
 H         2.615034         2.498508         1.803785
 H         4.097155         1.864236         1.277173
 H         2.458950         2.184961        -2.138851
 H         4.058574         1.925998        -1.752361
 H         2.728173        -0.226571        -1.964832
