19
Iteration:  4195
 C        -0.026632         0.445110         0.124647
 C         1.405671         0.105203        -0.026054
 O         1.852261        -1.322687         0.050056
 C         3.094110        -0.497215         0.139117
 C         2.410478         0.587901         1.113588
 C         2.980398         1.983907         1.123644
 O         2.751956         2.607377        -0.187786
 C         3.103918         1.751867        -1.250974
 C         2.543442         0.350463        -1.068895
 H        -0.240939        -0.143556         1.081356
 H        -0.155411         1.486589         0.009609
 H        -0.736896        -0.110195        -0.628080
 H         4.046155        -0.931808         0.172094
 H         2.409669         0.159607         2.151359
 H         2.498386         2.486814         1.934133
 H         4.077473         1.861867         1.275768
 H         2.765781         2.018529        -2.255017
 H         4.304918         1.655181        -1.461741
 H         2.466828        -0.209885        -2.033400
