19
Iteration:  4305
 C        -0.019525         0.389720        -0.026227
 C         1.442151         0.150213        -0.027414
 O         1.871925        -1.238456         0.111749
 C         3.069814        -0.500729         0.189981
 C         2.479713         0.520829         1.095552
 C         3.059313         1.925048         1.121383
 O         2.766314         2.631041        -0.100042
 C         2.984712         1.728754        -1.316969
 C         2.550971         0.345686        -1.005322
 H        -0.562773         0.150012         0.904422
 H        -0.139773         1.392092        -0.108237
 H        -0.644475        -0.185682        -0.750418
 H         3.958581        -1.031015         0.236280
 H         2.187018        -0.032389         2.020144
 H         2.642690         2.504505         1.872712
 H         4.184427         1.795534         0.920023
 H         2.406122         2.179144        -2.068005
 H         3.941013         1.905027        -1.713997
 H         2.258603        -0.118220        -1.960253
