19
Iteration:  2547
 C        -0.124624         0.395642        -0.084853
 C         1.398927         0.189357         0.053504
 O         1.882483        -1.307674         0.069374
 C         3.069955        -0.479976         0.046595
 C         2.536738         0.520875         1.093644
 C         3.123310         1.921237         1.133560
 O         2.708606         2.586507        -0.072550
 C         2.970862         1.783679        -1.190417
 C         2.584243         0.381126        -1.056482
 H        -0.617063        -0.058037         0.797362
 H        -0.361355         1.516394        -0.177401
 H        -0.488465        -0.034988        -1.009206
 H         4.101278        -1.075489         0.307769
 H         2.605486         0.175005         2.104795
 H         2.669868         2.302588         1.994382
 H         4.259881         1.973009         1.174742
 H         2.418435         2.144338        -1.987076
 H         4.034289         1.834919        -1.238629
 H         2.449714        -0.229372        -1.955579
