19
Iteration:  1677charge 0 multiplicity 1
 C         0.002722         0.342582        -0.042903
 C         1.440324         0.223071        -0.061550
 O         1.844655        -1.283158         0.001747
 C         3.090891        -0.557005         0.193890
 C         2.417877         0.489345         1.122832
 C         3.214343         1.914249         1.133002
 O         2.731472         2.610378        -0.066731
 C         2.935676         1.826158        -1.222637
 C         2.502156         0.424333        -1.011425
 H        -0.394299        -0.363655         0.683566
 H        -0.244801         1.432136         0.101284
 H        -0.438064         0.174886        -1.035594
 H         3.988230        -1.117956         0.481225
 H         2.081730        -0.052760         2.037064
 H         2.744426         2.587166         1.967245
 H         4.327361         1.701361         0.987341
 H         2.339923         2.205389        -2.147326
 H         4.084819         1.936182        -1.530397
 H         2.289033        -0.136062        -1.930367
