19
Iteration:  3082charge 0 multiplicity 1
 C        -0.028316         0.338676        -0.024154
 C         1.422295         0.125696         0.053747
 O         1.837554        -1.277482         0.182576
 C         3.042409        -0.542047         0.112417
 C         2.601605         0.540909         1.071655
 C         3.002624         1.930864         1.073888
 O         2.748820         2.626926        -0.101085
 C         3.030778         1.816356        -1.284385
 C         2.517586         0.394198        -1.069130
 H        -0.562456        -0.259254         0.667762
 H        -0.364505         1.373545         0.175547
 H        -0.300036         0.092143        -1.012349
 H         3.933043        -1.044137         0.142714
 H         2.284031         0.371611         2.093816
 H         2.626529         2.544481         1.938298
 H         4.050195         1.709828         1.025834
 H         2.586866         2.373220        -2.186981
 H         4.104605         1.641209        -1.376861
 H         2.436288        -0.096651        -2.067605
