19
Iteration:  2672charge 0 multiplicity 1
 C        -0.046356         0.305879         0.043542
 C         1.419535         0.156426         0.045884
 O         1.822024        -1.252556         0.078511
 C         3.153360        -0.439244         0.001351
 C         2.504647         0.547504         1.056834
 C         3.004221         2.014859         1.151885
 O         2.780979         2.567874        -0.096636
 C         3.080005         1.737023        -1.153782
 C         2.433044         0.344183        -1.130460
 H        -0.481710        -0.346719         0.795713
 H        -0.112725         1.349609         0.087409
 H        -0.434087        -0.018222        -0.932386
 H         4.126801        -0.996337        -0.022737
 H         2.330792         0.103348         2.068863
 H         2.432222         2.614871         1.989042
 H         4.021885         2.183566         1.529712
 H         2.935833         2.147556        -2.276937
 H         4.199784         1.530483        -1.154035
 H         1.994690        -0.058994        -2.070997
