19
Iteration:  3243
 C        -0.003015         0.391043         0.015103
 C         1.456697         0.166308        -0.031396
 O         1.827285        -1.303043         0.183426
 C         3.098208        -0.592540         0.190230
 C         2.501886         0.515145         1.052724
 C         3.048721         1.894243         1.108501
 O         2.665282         2.646025        -0.143489
 C         3.048809         1.822245        -1.304346
 C         2.534975         0.379110        -1.068817
 H        -0.455648        -0.182364         0.782379
 H        -0.040254         1.457986         0.371196
 H        -0.361490         0.317338        -0.961405
 H         4.046449        -1.230500         0.190747
 H         2.161530         0.332365         2.094952
 H         2.486585         2.492781         1.798878
 H         4.218485         1.876591         1.086486
 H         2.602894         2.310484        -2.124852
 H         4.139847         1.858462        -1.507609
 H         2.325755        -0.077842        -2.004173
