19
Iteration:  4336
 C        -0.132234         0.348793         0.016412
 C         1.358770         0.076471         0.085752
 O         1.830640        -1.296404         0.160561
 C         3.117224        -0.499461         0.059502
 C         2.547880         0.550197         1.076191
 C         2.983032         1.985906         1.089592
 O         2.829205         2.648868        -0.128576
 C         3.107816         1.766714        -1.267195
 C         2.528431         0.380073        -1.068744
 H        -0.662789        -0.021647         0.908514
 H        -0.281730         1.354829        -0.272061
 H        -0.638779        -0.116765        -0.895529
 H         4.050812        -1.053702         0.025564
 H         2.470100        -0.023018         1.974152
 H         2.520939         2.578767         1.941607
 H         4.082252         1.987595         1.502244
 H         2.615536         2.330937        -2.111099
 H         4.206287         1.682356        -1.581741
 H         2.195863        -0.109453        -1.990478
