19
Iteration:  1079
 C        -0.107929         0.531818         0.055298
 C         1.372600         0.030825         0.053894
 O         1.940027        -1.326558         0.032157
 C         3.071436        -0.515885        -0.045168
 C         2.578563         0.457414         1.054551
 C         2.902964         1.981454         1.180746
 O         2.813425         2.626881        -0.081781
 C         3.141257         1.772055        -1.177758
 C         2.442703         0.379914        -1.079588
 H        -0.778308         0.211498         1.023634
 H        -0.091490         1.516866        -0.281469
 H        -0.589564        -0.067493        -0.852772
 H         4.075521        -1.077384        -0.101656
 H         2.474231         0.018291         2.021485
 H         2.148520         2.393133         1.947251
 H         3.849377         2.289916         1.742694
 H         2.711875         2.354611        -1.969130
 H         4.233703         1.608497        -1.294095
 H         2.341518        -0.154752        -2.040710
