19
Iteration:  4553
 C        -0.087393         0.363861         0.054292
 C         1.393489         0.174738         0.068589
 O         1.844780        -1.370914         0.184585
 C         3.140870        -0.514174         0.005283
 C         2.535586         0.525837         1.074567
 C         2.923387         1.996916         1.137441
 O         2.830908         2.679912        -0.163036
 C         3.126865         1.767666        -1.309221
 C         2.483948         0.343182        -1.067095
 H        -0.473218        -0.020650         0.978749
 H        -0.439583         1.403383        -0.000985
 H        -0.538121         0.044512        -0.835192
 H         4.042631        -1.212801        -0.053856
 H         2.473330         0.079469         2.072888
 H         2.145667         2.544168         1.659193
 H         3.867247         2.069540         1.659223
 H         2.526208         2.303784        -2.068231
 H         4.289169         1.602660        -1.341652
 H         2.344186        -0.102051        -2.073792
