19
Iteration:  4986
 C        -0.081917         0.364178        -0.105060
 C         1.468953         0.154659         0.024289
 O         1.840250        -1.257421         0.186934
 C         3.089176        -0.574832         0.156421
 C         2.571784         0.467980         1.119600
 C         3.044775         2.025564         1.136707
 O         2.843155         2.651273        -0.188228
 C         2.949316         1.764470        -1.280989
 C         2.477969         0.382645        -1.018310
 H        -0.519196        -0.354373         0.558432
 H        -0.544847         1.330671         0.285154
 H        -0.405633         0.021016        -1.056683
 H         3.986262        -1.196920         0.147940
 H         2.334969         0.087654         2.089370
 H         2.694934         2.633216         1.866226
 H         4.153989         1.966758         1.407801
 H         2.251703         2.246783        -1.986780
 H         3.952483         1.518541        -1.783231
 H         2.170997        -0.014076        -1.989121
