19
Iteration:  2679
 C        -0.023882         0.307246         0.018174
 C         1.416379         0.121853         0.059613
 O         1.855605        -1.202399         0.094448
 C         3.131100        -0.458071         0.039181
 C         2.480349         0.507756         1.052124
 C         3.025101         1.978377         1.199512
 O         2.783004         2.577198        -0.145694
 C         3.051508         1.706201        -1.217928
 C         2.418329         0.429152        -1.107890
 H        -0.538561        -0.245392         0.817230
 H        -0.439081         1.411952         0.244376
 H        -0.331676        -0.059781        -0.982744
 H         4.219074        -1.058266         0.147663
 H         2.440703         0.053715         2.032590
 H         2.328000         2.398295         1.871635
 H         4.097020         2.067217         1.471492
 H         3.008565         2.279910        -2.132053
 H         4.169094         1.607555        -1.158115
 H         2.085858        -0.007031        -2.100757
