19
Iteration:  1065charge 0 multiplicity 1
 C        -0.096019         0.464349         0.056901
 C         1.394251         0.132409         0.005359
 O         1.891703        -1.363708         0.058760
 C         3.180526        -0.473304         0.009682
 C         2.467746         0.434178         1.076131
 C         2.886293         1.895951         1.163657
 O         2.837499         2.647973        -0.079974
 C         3.093213         1.810105        -1.228754
 C         2.498783         0.392082        -1.101379
 H        -0.408804         0.367435         1.090025
 H        -0.125140         1.567096        -0.081554
 H        -0.773794         0.032100        -0.600930
 H         4.196630        -1.016472        -0.022718
 H         2.337333        -0.016393         2.052868
 H         2.198703         2.418649         1.832302
 H         3.901169         1.907607         1.613861
 H         2.789373         2.230023        -2.182513
 H         4.100104         1.673566        -1.223982
 H         2.268289        -0.032119        -2.013633
