19
Iteration:  4888charge 0 multiplicity 1
 C        -0.029388         0.502161         0.011327
 C         1.474807         0.210748         0.043537
 O         1.861094        -1.334765         0.220295
 C         3.061481        -0.564782         0.101084
 C         2.613811         0.440896         1.074160
 C         2.930045         1.972834         1.059354
 O         2.689330         2.555372        -0.157929
 C         3.109116         1.818306        -1.270623
 C         2.485951         0.363482        -1.110368
 H        -0.460360         0.409039         1.003917
 H        -0.362683         1.549407        -0.352963
 H        -0.345919        -0.332413        -0.647521
 H         3.974612        -1.155167         0.326001
 H         2.397712         0.108150         2.077117
 H         2.214842         2.409928         1.934320
 H         3.941492         2.169983         1.378469
 H         2.677903         2.242526        -2.194699
 H         4.125847         1.826524        -1.426417
 H         2.524424        -0.133163        -2.089804
