19
Iteration:  2191charge 0 multiplicity 1
 C         0.025580         0.499491        -0.050066
 C         1.417468         0.115452        -0.000759
 O         1.870770        -1.379351         0.071629
 C         3.115983        -0.596309         0.224695
 C         2.444791         0.451512         1.149588
 C         3.011304         1.861256         1.112611
 O         2.776382         2.622888        -0.024410
 C         2.864826         1.937699        -1.427238
 C         2.600949         0.414804        -1.074156
 H        -0.507858         0.193986         0.839833
 H        -0.032161         1.693239         0.120099
 H        -0.336112         0.094705        -1.027486
 H         4.111651        -1.213558         0.453789
 H         2.285874         0.125087         2.175121
 H         2.513137         2.444546         1.771579
 H         4.114814         1.765984         1.321204
 H         2.300827         2.520111        -2.054651
 H         3.941373         1.951340        -1.642866
 H         2.726153        -0.132742        -2.020009
