19
Iteration:  3920
 C        -0.129433         0.375127        -0.068944
 C         1.433751         0.218309         0.046391
 O         1.870497        -1.278702         0.171442
 C         3.133987        -0.457086         0.130075
 C         2.514593         0.510842         1.121280
 C         3.103558         1.935808         1.078317
 O         2.787612         2.565741        -0.124661
 C         2.993759         1.757223        -1.282339
 C         2.437758         0.355526        -1.057435
 H        -0.739653         0.034111         0.760050
 H        -0.313827         1.353329        -0.447363
 H        -0.167503        -0.224769        -0.968596
 H         4.041000        -0.990863         0.231148
 H         2.453875         0.096102         2.174196
 H         2.616897         2.489257         1.952961
 H         4.225784         2.091344         1.317246
 H         2.513427         2.248367        -2.130128
 H         4.151791         1.752188        -1.440812
 H         2.077702        -0.238027        -1.894469
