19
Iteration:    28
 C        -0.101220         0.393845        -0.011854
 C         1.453689         0.206665         0.039489
 O         1.810260        -1.184585         0.113491
 C         3.114109        -0.471257        -0.061456
 C         2.644647         0.455816         1.124138
 C         2.962827         1.916500         1.231316
 O         2.771946         2.517150        -0.059956
 C         3.106529         1.756632        -1.266005
 C         2.452117         0.414512        -1.122977
 H        -0.435321         0.049866         0.998169
 H        -0.372333         1.443935        -0.369623
 H        -0.577299        -0.402404        -0.812267
 H         4.043514        -1.090797        -0.239117
 H         2.404555        -0.023839         2.174841
 H         2.307606         2.352723         2.026578
 H         4.002827         2.083703         1.659757
 H         2.563948         2.292417        -2.079370
 H         4.234147         1.603717        -1.418739
 H         2.168132        -0.146395        -2.079782
