19
Iteration:  1653
 C        -0.134903         0.380555        -0.005776
 C         1.310645         0.069305         0.067694
 O         1.856744        -1.334178         0.091385
 C         3.104704        -0.420284         0.047911
 C         2.452876         0.482645         1.086364
 C         3.078116         1.850128         1.081772
 O         2.806989         2.629809        -0.054902
 C         3.042433         1.904734        -1.245694
 C         2.611577         0.410306        -1.029977
 H        -0.612489        -0.202134         0.682840
 H        -0.402699         1.530300        -0.065338
 H        -0.399452         0.057337        -0.940978
 H         4.020618        -1.111257         0.228728
 H         2.362617         0.059317         2.069050
 H         2.556751         2.425764         1.905507
 H         4.242654         1.675889         1.058728
 H         2.483095         2.371017        -2.102154
 H         4.194359         2.028672        -1.541034
 H         2.593166        -0.141447        -1.994104
