19
Iteration:  2184
 C         0.072562         0.516224        -0.072142
 C         1.466419         0.136565         0.005255
 O         1.865529        -1.379228         0.079269
 C         3.102287        -0.555996         0.191513
 C         2.437507         0.459396         1.145406
 C         3.007658         1.821174         1.084484
 O         2.769684         2.608988        -0.065589
 C         2.868795         1.892601        -1.317122
 C         2.578060         0.422396        -1.034956
 H        -0.551501         0.206060         0.885701
 H         0.166884         1.573223         0.047401
 H        -0.411428         0.104013        -1.020134
 H         4.139928        -1.032274         0.110881
 H         2.120315         0.092457         2.159558
 H         2.411841         2.404089         1.910003
 H         4.039523         1.947882         1.374323
 H         2.270338         2.509743        -2.108093
 H         3.887852         1.927907        -1.777423
 H         2.609193        -0.172451        -1.920706
