19
Iteration:  3206
 C        -0.089604         0.466702         0.001072
 C         1.407578         0.112604         0.054549
 O         1.895464        -1.277056         0.148179
 C         3.139249        -0.487749         0.079707
 C         2.600944         0.514060         1.122089
 C         3.001223         1.941203         1.099354
 O         2.677486         2.542254        -0.155858
 C         3.093602         1.764316        -1.302266
 C         2.461791         0.394553        -1.013877
 H        -0.879011         0.201377         0.764403
 H        -0.082768         1.502958        -0.199008
 H        -0.530253         0.101895        -0.994242
 H         4.111080        -1.140267         0.014818
 H         2.440442         0.020280         2.091601
 H         2.463735         2.395974         1.998729
 H         4.137405         2.080105         1.423484
 H         2.620250         2.238407        -2.246855
 H         4.211744         1.670931        -1.372897
 H         2.207538        -0.232359        -1.934550
