19
Iteration:  4102charge 0 multiplicity 1
 C         0.012307         0.407324        -0.009180
 C         1.411358         0.087159        -0.013270
 O         1.876587        -1.313644         0.189904
 C         3.106920        -0.527949         0.203545
 C         2.417741         0.506270         1.115420
 C         3.049821         1.888486         1.065212
 O         2.814660         2.657625        -0.182633
 C         2.937782         1.828299        -1.257008
 C         2.511222         0.409663        -1.059937
 H        -0.512420         0.103895         0.812309
 H        -0.026514         1.452926        -0.310659
 H        -0.423094        -0.005222        -0.827575
 H         4.116016        -1.074797         0.214940
 H         2.082392         0.222930         2.066114
 H         2.786118         2.571872         1.918453
 H         4.134173         1.696261         1.233998
 H         2.325915         2.226191        -2.107562
 H         4.055804         1.759391        -1.753711
 H         2.281527        -0.096375        -1.987636
