19
Iteration:   134charge 0 multiplicity 1
 C        -0.068323         0.490574        -0.108003
 C         1.361074         0.065086         0.033531
 O         1.862508        -1.432493         0.145700
 C         3.069229        -0.553256         0.008672
 C         2.603376         0.508649         1.071489
 C         3.129430         2.007169         1.124497
 O         2.746990         2.652456        -0.017511
 C         3.035490         1.850274        -1.168564
 C         2.390139         0.360842        -1.075460
 H        -0.798548         0.046408         0.496854
 H        -0.103409         1.462599         0.149497
 H        -0.306359         0.258567        -1.236026
 H         4.187319        -1.097353        -0.054804
 H         2.656980         0.104721         2.196275
 H         2.466953         2.517928         1.944151
 H         4.206221         1.965626         1.374210
 H         2.712994         2.465045        -2.159406
 H         4.110096         1.783098        -1.398014
 H         2.112265        -0.231114        -2.083313
