19
Iteration:   949charge 0 multiplicity 1
 C         0.000941         0.498009        -0.001626
 C         1.442792         0.138159        -0.001986
 O         1.820476        -1.296708         0.024837
 C         3.124567        -0.547049         0.144011
 C         2.500722         0.427840         1.140740
 C         3.013141         1.897581         1.149255
 O         2.728735         2.612265        -0.093628
 C         2.980236         1.809558        -1.283677
 C         2.612331         0.394152        -1.081370
 H        -0.400686         0.133858         1.030474
 H        -0.216127         1.498757        -0.089161
 H        -0.495938        -0.012611        -0.880487
 H         3.912385        -1.193752         0.174126
 H         2.280246        -0.011772         2.086878
 H         2.494527         2.552332         1.844083
 H         4.098874         1.947310         1.416648
 H         2.270431         2.352654        -1.873468
 H         4.034196         2.039009        -1.516487
 H         2.384742        -0.223899        -1.971616
