19
Iteration:  2288charge 0 multiplicity 1
 C        -0.019958         0.345631         0.083385
 C         1.434745         0.107817        -0.063336
 O         1.865086        -1.293767         0.040599
 C         3.081689        -0.518399         0.064951
 C         2.405632         0.519394         1.084152
 C         2.948951         1.961773         1.209833
 O         2.823861         2.627047        -0.086750
 C         3.087436         1.761884        -1.281022
 C         2.538293         0.434387        -1.064009
 H        -0.195202         0.168056         1.098707
 H        -0.083290         1.493373        -0.082135
 H        -0.695284        -0.106263        -0.595707
 H         3.973939        -1.027960        -0.072161
 H         2.101804         0.043277         2.001880
 H         2.143174         2.556446         1.771048
 H         3.992264         2.049916         1.569501
 H         2.600012         2.277981        -2.142737
 H         4.221109         1.669897        -1.334725
 H         2.444738        -0.255503        -1.977985
