19
Iteration:  2927
 C        -0.191636         0.308630        -0.035479
 C         1.414489         0.128442         0.065591
 O         1.862522        -1.291861         0.108943
 C         3.183331        -0.484246         0.110605
 C         2.472324         0.475389         1.160186
 C         3.092357         1.927844         1.090759
 O         2.831184         2.676780        -0.114117
 C         2.978409         1.845912        -1.275207
 C         2.573881         0.353382        -1.082648
 H        -0.714040         0.069462         0.834983
 H        -0.288427         1.415816        -0.071042
 H        -0.795685        -0.021169        -0.831259
 H         4.058998        -1.068195         0.080280
 H         2.090179         0.129401         2.157084
 H         2.745699         2.601745         1.977606
 H         4.135398         1.804507         1.373727
 H         2.229325         2.232695        -2.110973
 H         3.961834         1.731937        -1.766741
 H         2.451963        -0.165859        -2.056669
