19
Iteration:  2111
 C        -0.075979         0.349878         0.073868
 C         1.370352         0.124190         0.019421
 O         1.812497        -1.305419        -0.022828
 C         3.088870        -0.513163         0.054344
 C         2.515763         0.512406         1.115179
 C         3.047356         1.953514         1.106018
 O         2.710437         2.669834        -0.103826
 C         3.154973         1.820890        -1.156676
 C         2.551082         0.330577        -1.068818
 H        -0.545444        -0.053259         0.979213
 H        -0.219906         1.436863        -0.190279
 H        -0.478217        -0.281368        -0.702544
 H         3.967024        -1.052811         0.026686
 H         2.117326         0.196826         2.087157
 H         2.598771         2.573917         1.935068
 H         4.076902         2.121279         1.444569
 H         2.902640         2.266858        -2.150490
 H         4.252457         1.832768        -1.152407
 H         2.374109        -0.258614        -2.066844
