19
Iteration:  2501
 C        -0.081504         0.377595         0.107847
 C         1.427274         0.143330        -0.055340
 O         1.886701        -1.355402        -0.001410
 C         3.072455        -0.487688         0.082396
 C         2.476546         0.477455         1.061702
 C         2.980762         2.014423         1.106061
 O         2.833064         2.674814        -0.097235
 C         3.078400         1.768398        -1.191082
 C         2.511657         0.365960        -1.027933
 H        -0.563353        -0.197350         0.978907
 H        -0.371185         1.418692         0.050429
 H        -0.612477         0.022879        -0.837171
 H         4.210310        -0.977414         0.157297
 H         2.126732         0.038013         2.029879
 H         2.361299         2.481684         1.860280
 H         4.006615         1.890614         1.528676
 H         2.450547         2.178393        -1.899588
 H         4.124900         1.737388        -1.384636
 H         2.414134        -0.063423        -2.007321
