19
Iteration:  2652charge 0 multiplicity 1
 C        -0.107655         0.426742         0.060637
 C         1.373772         0.113498         0.013415
 O         1.902140        -1.333872         0.120926
 C         3.076536        -0.553455         0.038382
 C         2.504122         0.453737         1.054963
 C         2.970092         1.974682         1.157941
 O         2.748515         2.667598        -0.145852
 C         3.136223         1.797851        -1.224603
 C         2.527098         0.418907        -1.101955
 H        -0.437778        -0.129364         0.971355
 H        -0.418026         1.417679         0.167573
 H        -0.601662        -0.089190        -0.769208
 H         3.933016        -1.036946        -0.005722
 H         2.533853         0.043605         2.095119
 H         2.366754         2.365794         2.037684
 H         4.056405         2.076107         1.461735
 H         2.934211         2.226508        -2.258728
 H         4.207815         1.825361        -1.317276
 H         2.495991        -0.069485        -2.064613
