19
Iteration:  3728
 C        -0.113182         0.409334        -0.059127
 C         1.368976         0.114142         0.087479
 O         1.867259        -1.234744         0.188498
 C         3.147626        -0.530526         0.078273
 C         2.596217         0.502004         1.057543
 C         2.941330         1.971667         1.155453
 O         2.858794         2.613361        -0.162075
 C         2.991028         1.791232        -1.225944
 C         2.512413         0.310114        -1.105131
 H        -0.762482         0.115407         0.889800
 H        -0.141996         1.420939        -0.435625
 H        -0.635417        -0.416222        -0.824571
 H         4.241519        -1.063750         0.101075
 H         2.461007         0.259275         2.102797
 H         2.706383         2.549605         1.973840
 H         3.982098         1.985875         1.567051
 H         2.353846         2.239987        -2.042741
 H         3.945067         1.846690        -1.667679
 H         2.150087        -0.257736        -2.039167
