19
Iteration:  2576charge 0 multiplicity 1
 C         0.064056         0.454103        -0.132374
 C         1.470565         0.093608         0.088422
 O         1.821232        -1.345180         0.210476
 C         3.123524        -0.498408        -0.005114
 C         2.511740         0.374700         1.117193
 C         3.046568         1.905488         1.137380
 O         2.708702         2.652270        -0.127725
 C         2.938511         1.861457        -1.222047
 C         2.497177         0.435517        -1.055783
 H        -0.695482         0.227950         0.708534
 H         0.138404         1.493456        -0.375018
 H        -0.473731         0.094367        -1.055885
 H         4.095715        -0.992426         0.106317
 H         2.418512        -0.082106         2.158181
 H         2.599523         2.277657         2.107815
 H         4.135135         2.008945         1.310473
 H         2.308493         2.245878        -2.079669
 H         4.080730         1.921338        -1.440040
 H         2.330539        -0.076662        -1.984719
