19
Iteration:  2850
 C        -0.021224         0.422364         0.110347
 C         1.470496         0.076085        -0.028912
 O         1.873986        -1.294874         0.074603
 C         3.148609        -0.515034         0.137156
 C         2.442117         0.451382         1.066182
 C         2.923431         1.950470         1.159853
 O         2.801195         2.652536        -0.171200
 C         3.065855         1.820182        -1.311568
 C         2.497522         0.392749        -1.036879
 H        -0.349383        -0.079528         0.999808
 H        -0.216511         1.470765         0.233302
 H        -0.579008         0.128746        -0.724613
 H         4.041703        -1.076292         0.170295
 H         2.202742        -0.067499         2.032650
 H         2.307977         2.625689         1.867043
 H         3.947391         1.859497         1.403274
 H         2.442063         2.270222        -2.204206
 H         4.104006         1.607823        -1.500049
 H         2.224804        -0.086969        -1.982545
