19
Iteration:   346
 C        -0.082732         0.471237        -0.040372
 C         1.472684         0.148067         0.040776
 O         1.848745        -1.320870         0.099393
 C         3.077538        -0.570177        -0.003949
 C         2.651308         0.417424         1.083245
 C         2.990804         1.937672         1.187932
 O         2.759460         2.705111        -0.058539
 C         3.058281         1.791978        -1.218562
 C         2.402673         0.353579        -1.101122
 H        -0.581296         0.049512         0.810561
 H        -0.147941         1.604338        -0.129608
 H        -0.374357        -0.030320        -0.830840
 H         3.968077        -1.103539        -0.192473
 H         2.622191         0.046907         2.108060
 H         2.339556         2.326729         1.941710
 H         4.014776         2.100922         1.619611
 H         2.573645         2.236329        -2.080570
 H         4.157913         1.671058        -1.340737
 H         2.095014        -0.094432        -2.026230
