19
Iteration:  1162charge 0 multiplicity 1
 C         0.011658         0.419047        -0.091887
 C         1.432438         0.118697         0.018785
 O         1.878685        -1.321367         0.068769
 C         3.111368        -0.526567         0.122632
 C         2.379794         0.469842         1.156160
 C         3.099722         1.827540         1.065846
 O         2.756590         2.622595        -0.047183
 C         2.951428         1.908783        -1.229853
 C         2.490447         0.446159        -1.059953
 H        -0.474528        -0.026800         0.670973
 H        -0.060615         1.603292         0.148227
 H        -0.368094         0.216200        -1.036619
 H         3.967293        -1.068503         0.418789
 H         2.421756         0.130325         2.205076
 H         2.838788         2.255586         1.972015
 H         4.164265         1.596878         0.961295
 H         2.457811         2.378775        -2.085705
 H         4.044790         1.876597        -1.574850
 H         2.362976        -0.192247        -1.896416
