19
Iteration:  2356
 C         0.000453         0.443942        -0.129754
 C         1.439355         0.156686         0.073242
 O         1.849408        -1.297844         0.144996
 C         3.114466        -0.544808         0.026152
 C         2.578144         0.490149         1.060436
 C         3.051169         1.880051         1.189930
 O         2.666580         2.655024        -0.050605
 C         2.994076         1.815921        -1.273852
 C         2.492691         0.351714        -1.030609
 H        -0.624336         0.032425         0.623451
 H        -0.228426         1.539529        -0.085521
 H        -0.161231         0.104229        -1.163221
 H         4.076362        -1.168972         0.030675
 H         2.403461         0.165666         2.102777
 H         2.406445         2.289481         1.973050
 H         4.166959         1.917412         1.304137
 H         2.499291         2.273253        -2.108403
 H         4.153644         1.771306        -1.311022
 H         2.250002        -0.210071        -1.950134
