19
Iteration:  1631
 C        -0.113656         0.367517        -0.027573
 C         1.391016         0.134879        -0.031679
 O         1.909868        -1.299546         0.103526
 C         3.108366        -0.500080        -0.000668
 C         2.549160         0.499083         1.122861
 C         2.974813         1.929539         1.219563
 O         2.834916         2.644209        -0.041280
 C         3.060069         1.778191        -1.222392
 C         2.419523         0.373548        -1.119652
 H        -0.434826        -0.016666         0.865734
 H        -0.190839         1.539375        -0.124297
 H        -0.624780        -0.025686        -0.834875
 H         4.122020        -1.055731        -0.104016
 H         2.254690         0.107951         2.072428
 H         2.326358         2.518660         1.923999
 H         4.091397         1.957485         1.385361
 H         2.700426         2.467944        -2.022286
 H         4.216621         1.590414        -1.408534
 H         2.198492        -0.040007        -2.124371
