19
Iteration:  3446
 C        -0.147026         0.555753         0.000146
 C         1.407244         0.089049         0.031520
 O         1.952133        -1.342762         0.179749
 C         3.137287        -0.523452         0.143817
 C         2.473336         0.543260         1.059019
 C         3.055798         1.927083         1.103054
 O         2.709410         2.600532        -0.134465
 C         2.985713         1.773180        -1.297662
 C         2.602570         0.317622        -1.090361
 H        -0.814298         0.004983         0.731758
 H        -0.038821         1.551387         0.308912
 H        -0.587682         0.419064        -1.060597
 H         4.004544        -1.068494         0.399471
 H         2.392841         0.004550         2.005143
 H         2.600376         2.515362         1.969913
 H         4.042702         1.996718         1.336683
 H         2.371307         2.087774        -2.209118
 H         4.098306         1.842423        -1.552107
 H         2.414584        -0.120172        -2.139785
