19
Iteration:  4689
 C        -0.076579         0.558847        -0.034067
 C         1.414504         0.123003         0.046579
 O         1.926867        -1.389461         0.167424
 C         3.109648        -0.510489         0.064115
 C         2.536541         0.533365         1.034788
 C         2.996045         1.975359         1.116070
 O         2.697718         2.619779        -0.130283
 C         3.016090         1.736294        -1.239400
 C         2.511700         0.317470        -1.025228
 H        -0.472833         0.334574         0.937150
 H        -0.059951         1.467173        -0.463838
 H        -0.628862        -0.068769        -0.789733
 H         4.097740        -0.905830         0.094300
 H         2.427466         0.193955         2.091396
 H         2.626095         2.656740         2.006046
 H         4.051833         1.788198         1.302002
 H         2.540964         2.167202        -2.147952
 H         4.166444         1.550924        -1.225816
 H         2.404691        -0.126762        -2.042810
