19
Iteration:  4863
 C        -0.005177         0.505475        -0.066668
 C         1.439549         0.072578         0.052639
 O         1.892580        -1.256633         0.145787
 C         3.123617        -0.453815         0.048947
 C         2.523165         0.519009         1.132386
 C         3.021175         1.974681         1.092125
 O         2.676598         2.574409        -0.125135
 C         3.029607         1.705973        -1.204800
 C         2.453065         0.270207        -1.021792
 H        -0.462088         0.767604         0.972214
 H         0.079808         1.471737        -0.557377
 H        -0.634784        -0.224077        -0.760841
 H         4.095239        -0.890349        -0.055243
 H         2.219742         0.218760         2.217546
 H         2.605216         2.454147         1.995192
 H         4.210311         1.998448         1.081848
 H         2.522399         2.056549        -2.193511
 H         4.058366         1.807105        -1.515367
 H         2.420717        -0.325601        -1.995851
