19
Iteration:  2015
 C         0.052515         0.414393        -0.114697
 C         1.433838         0.060387         0.022630
 O         1.831288        -1.303211         0.146598
 C         3.138950        -0.452773         0.092870
 C         2.459462         0.472383         1.150947
 C         2.970187         1.903082         1.148890
 O         2.912893         2.577841        -0.075472
 C         2.864989         1.882460        -1.271961
 C         2.465489         0.406269        -1.093894
 H        -0.516531        -0.165808         0.608259
 H        -0.008382         1.629523        -0.101744
 H        -0.403381         0.076633        -1.051372
 H         4.211769        -1.122145         0.052649
 H         2.315373         0.001160         2.107708
 H         2.495534         2.464449         1.899698
 H         4.011080         1.974330         1.614844
 H         2.290320         2.487300        -1.932138
 H         3.931757         1.840909        -1.684331
 H         2.387591        -0.264549        -1.957753
