19
Iteration:  2711charge 0 multiplicity 1
 C        -0.120109         0.378768         0.024339
 C         1.381686         0.060623         0.058297
 O         1.872351        -1.362384         0.097896
 C         3.135464        -0.534298         0.076935
 C         2.423769         0.541737         1.068568
 C         3.068702         1.964912         1.119466
 O         2.818792         2.659423        -0.125024
 C         2.996161         1.843095        -1.268127
 C         2.614268         0.390123        -1.057244
 H        -0.714603        -0.108056         0.817121
 H        -0.413394         1.536859         0.071227
 H        -0.619405         0.052380        -0.912440
 H         4.159692        -1.032840         0.329391
 H         2.295994         0.065675         2.049003
 H         2.522678         2.589027         1.781185
 H         4.159780         1.857473         1.445369
 H         2.275464         2.294494        -1.857508
 H         4.065646         1.893625        -1.582813
 H         2.460659        -0.091112        -2.067175
