19
Iteration:   367charge 0 multiplicity 1
 C        -0.000805         0.452547         0.083813
 C         1.497722         0.101474         0.060452
 O         1.770742        -1.282240         0.047920
 C         3.104167        -0.574598        -0.078590
 C         2.498193         0.483304         1.061245
 C         2.930928         1.955008         1.201621
 O         2.791281         2.572274        -0.090874
 C         3.045781         1.808176        -1.190806
 C         2.548539         0.389809        -1.101605
 H        -0.348094         0.252416         1.096315
 H         0.017181         1.534895        -0.214315
 H        -0.426339        -0.148342        -0.594498
 H         4.011170        -1.116746        -0.032566
 H         2.397379         0.169309         2.092512
 H         2.261100         2.437718         1.851397
 H         3.935362         2.245953         1.573536
 H         2.450781         2.315728        -2.010458
 H         4.035919         1.818062        -1.527018
 H         2.423087         0.008178        -2.075913
