19
Iteration:  1918
 C        -0.125967         0.474078        -0.035863
 C         1.382437         0.112324        -0.004692
 O         1.910219        -1.300303         0.089286
 C         3.111443        -0.509172        -0.004269
 C         2.587291         0.485494         1.147263
 C         2.960993         1.969647         1.181975
 O         2.725369         2.620307        -0.095193
 C         3.079781         1.768233        -1.217566
 C         2.544353         0.335532        -1.068598
 H        -0.498338         0.090099         0.892023
 H        -0.213472         1.624690        -0.197625
 H        -0.913829         0.223222        -0.758040
 H         4.029382        -1.157791        -0.013869
 H         2.703492        -0.179763         1.997185
 H         2.316361         2.408968         1.992198
 H         4.027441         2.131202         1.447926
 H         2.568250         2.116464        -2.096497
 H         4.182865         1.689873        -1.257634
 H         2.390922        -0.148824        -1.983363
