19
Iteration:  4942
 C        -0.148972         0.429885         0.047172
 C         1.363107         0.150441         0.027505
 O         1.968799        -1.329750         0.171273
 C         3.131192        -0.458457         0.106360
 C         2.402523         0.506680         1.091635
 C         2.983607         1.884070         1.046947
 O         2.814673         2.577918        -0.187400
 C         3.103402         1.782211        -1.352769
 C         2.495462         0.424843        -1.022379
 H        -0.564836        -0.144586         0.884293
 H        -0.084267         1.492897         0.531560
 H        -0.793377         0.265495        -0.835217
 H         4.081583        -0.975756         0.261733
 H         2.292639         0.206751         2.136447
 H         2.458195         2.457069         1.841468
 H         4.062390         2.047109         1.581406
 H         2.672652         2.124855        -2.307300
 H         4.181567         1.662273        -1.331494
 H         2.441639        -0.193111        -1.937508
