19
Iteration:  2293charge 0 multiplicity 1
 C        -0.021098         0.413043         0.091763
 C         1.404543         0.121896        -0.070513
 O         1.896552        -1.310370         0.051032
 C         3.074252        -0.496591         0.070776
 C         2.412919         0.515754         1.093691
 C         2.888961         1.927083         1.194873
 O         2.824174         2.594994        -0.118904
 C         3.095323         1.793478        -1.276884
 C         2.569126         0.422600        -1.041349
 H        -0.158396        -0.020163         1.157841
 H        -0.208386         1.426864        -0.148283
 H        -0.782139        -0.098092        -0.573096
 H         4.035770        -1.163180        -0.101469
 H         2.140477         0.023221         2.062627
 H         2.315766         2.542354         1.859932
 H         3.973882         1.975689         1.546331
 H         2.574725         2.343868        -2.064121
 H         4.165651         1.667008        -1.509858
 H         2.570202        -0.066215        -1.987903
