19
Iteration:  4132charge 0 multiplicity 1
 C        -0.079486         0.377081        -0.073215
 C         1.345604         0.139449         0.036265
 O         1.887336        -1.296843         0.176908
 C         3.075109        -0.451538         0.149634
 C         2.565991         0.535973         1.069016
 C         3.108924         1.906924         1.220410
 O         2.851312         2.624308        -0.182593
 C         2.943632         1.722003        -1.294997
 C         2.481135         0.381794        -1.069205
 H        -0.827683         0.036844         0.748716
 H        -0.291842         1.391197        -0.328019
 H        -0.276301        -0.098127        -1.141396
 H         4.054639        -0.897062         0.198721
 H         2.437018         0.133487         2.169287
 H         2.537271         2.542169         1.980573
 H         4.154262         2.205461         1.567430
 H         2.259124         2.137332        -2.038394
 H         3.885868         1.739216        -1.639272
 H         2.209547        -0.219454        -1.971399
