19
Iteration:  4771
 C        -0.104094         0.380327        -0.025133
 C         1.390013         0.108637         0.116074
 O         1.891376        -1.328127         0.231149
 C         3.136505        -0.416526         0.044228
 C         2.449315         0.516130         1.056410
 C         2.975053         1.901888         1.035056
 O         2.871804         2.631086        -0.182824
 C         3.115303         1.797549        -1.239257
 C         2.406854         0.367347        -1.045762
 H        -0.608066        -0.211702         0.711117
 H        -0.303300         1.424972         0.416281
 H        -0.369233         0.077169        -1.018525
 H         4.204145        -0.814795         0.067973
 H         2.184942         0.214465         2.052931
 H         2.397280         2.501966         1.659138
 H         3.953399         1.818698         1.428534
 H         2.757914         2.331196        -2.080340
 H         4.201930         1.733574        -1.493102
 H         2.190953        -0.235795        -1.907692
