19
Iteration:   458
 C        -0.050123         0.379056        -0.140027
 C         1.438037         0.195792         0.130663
 O         1.769696        -1.248078         0.143053
 C         3.063235        -0.511951        -0.031011
 C         2.639579         0.485645         1.117836
 C         3.136497         1.869663         1.220074
 O         2.715696         2.615689        -0.054436
 C         2.985407         1.808816        -1.259784
 C         2.490299         0.319683        -1.105878
 H        -0.628881        -0.237208         0.526640
 H        -0.526562         1.431737        -0.049679
 H        -0.451506         0.148231        -1.177978
 H         4.113681        -0.928419         0.037187
 H         2.771885        -0.097343         2.076735
 H         2.690194         2.629855         1.966485
 H         4.238387         1.977773         1.596404
 H         2.415798         2.366732        -1.991575
 H         4.029346         1.990351        -1.518589
 H         2.387261        -0.173561        -2.152770
