19
Iteration:  4622charge 0 multiplicity 1
 C        -0.100354         0.469356        -0.029881
 C         1.423960         0.141507        -0.008355
 O         1.932741        -1.337409         0.131505
 C         3.136354        -0.608775         0.213114
 C         2.479879         0.566679         1.057626
 C         3.082107         1.931273         1.096665
 O         2.739026         2.602092        -0.151204
 C         2.961631         1.810004        -1.303217
 C         2.504690         0.373935        -1.006863
 H        -0.372257         0.023037         0.945467
 H        -0.274333         1.493748        -0.060574
 H        -0.628474         0.176003        -0.971723
 H         4.020841        -1.211922         0.269696
 H         2.164067         0.327656         2.116951
 H         2.716850         2.609603         1.979373
 H         4.105666         1.892163         1.117152
 H         2.269159         2.294213        -2.027149
 H         4.110576         1.752590        -1.459958
 H         2.527094        -0.250918        -1.916288
