19
Iteration:   915
 C        -0.093894         0.561959         0.126507
 C         1.414556         0.065537        -0.031767
 O         1.913088        -1.325804         0.031809
 C         3.116652        -0.504582         0.070315
 C         2.470015         0.424814         1.068070
 C         2.940986         1.935315         1.119540
 O         2.729340         2.597952        -0.087285
 C         3.062786         1.818737        -1.216070
 C         2.639621         0.361826        -1.137460
 H        -0.417586         0.336304         1.215068
 H        -0.136813         1.620578        -0.029746
 H        -0.842958         0.026578        -0.447425
 H         4.024047        -1.002419         0.121382
 H         2.328419        -0.007732         2.024903
 H         2.248685         2.384684         1.827855
 H         3.972640         1.996002         1.520403
 H         2.756647         2.317032        -2.061309
 H         4.119924         1.645092        -1.350221
 H         2.307680        -0.085682        -2.022310
