19
Iteration:  1202
 C        -0.032015         0.472083        -0.125003
 C         1.393645         0.094548         0.004616
 O         1.851010        -1.239199         0.087692
 C         3.107546        -0.514088         0.019665
 C         2.649990         0.502190         1.067249
 C         3.043932         1.960983         1.196395
 O         2.783963         2.578440         0.001720
 C         2.966005         1.775880        -1.182719
 C         2.443485         0.318341        -1.090441
 H        -0.408350        -0.044761         0.856535
 H        -0.377537         1.563497        -0.278549
 H        -0.537019        -0.137486        -0.991142
 H         4.003823        -1.149402         0.044297
 H         2.537556        -0.098726         2.018733
 H         2.271715         2.539064         1.915042
 H         4.090741         2.036372         1.692296
 H         2.446452         2.408145        -1.954348
 H         4.119993         1.773315        -1.376328
 H         2.071095        -0.085036        -2.124467
