19
Iteration:  2920
 C        -0.158872         0.331373        -0.016460
 C         1.393725         0.122505         0.074277
 O         1.862237        -1.302079         0.116598
 C         3.167327        -0.483284         0.073868
 C         2.471985         0.525167         1.112560
 C         3.048819         1.927159         1.124698
 O         2.845087         2.631249        -0.112748
 C         2.990745         1.794115        -1.306751
 C         2.541120         0.405362        -1.043985
 H        -0.715572        -0.057444         0.870198
 H        -0.228481         1.454650        -0.123857
 H        -0.435688        -0.072741        -1.033855
 H         4.149196        -1.020224         0.306956
 H         2.360735         0.084690         2.124347
 H         2.664331         2.605311         1.838268
 H         4.130091         1.701179         1.279857
 H         2.161816         2.344199        -1.836199
 H         3.991833         1.914708        -1.758063
 H         2.394742        -0.137966        -2.037988
