19
Iteration:  1989charge 0 multiplicity 1
 C        -0.108286         0.460366        -0.004167
 C         1.381892         0.170015         0.000051
 O         1.931408        -1.354356         0.039627
 C         3.085592        -0.479996         0.136930
 C         2.436847         0.537166         1.040198
 C         3.017854         1.870917         1.166614
 O         2.823992         2.614214        -0.080818
 C         2.970344         1.802447        -1.238744
 C         2.612487         0.355967        -1.075034
 H        -0.448988        -0.052391         0.986296
 H        -0.248126         1.567535        -0.220980
 H        -0.720189        -0.046375        -0.818665
 H         4.083318        -0.882518         0.364663
 H         2.371794         0.041854         2.070563
 H         2.584251         2.462419         2.060145
 H         4.054020         1.824129         1.407395
 H         2.183846         2.278085        -1.951917
 H         4.027116         1.921852        -1.615411
 H         2.515379        -0.323908        -2.028537
