19
Iteration:   626charge 0 multiplicity 1
 C        -0.078885         0.464828        -0.060619
 C         1.407807         0.100839         0.037639
 O         1.819790        -1.314847         0.065047
 C         3.127573        -0.497600         0.104614
 C         2.506897         0.476780         1.115721
 C         3.088081         1.891544         1.141825
 O         2.792382         2.631867        -0.030551
 C         2.917825         1.827879        -1.329429
 C         2.653095         0.380276        -1.058354
 H        -0.500575        -0.193882         0.751513
 H        -0.373563         1.425813         0.114636
 H        -0.657145         0.019605        -0.941518
 H         4.088800        -1.019843         0.244380
 H         2.057183         0.200407         2.028439
 H         2.664821         2.486964         1.929483
 H         4.169500         1.775299         1.323301
 H         2.188266         2.168280        -1.937931
 H         3.956170         2.074326        -1.649786
 H         2.393467        -0.191663        -1.923191
