19
Iteration:  1266
 C        -0.006668         0.414133         0.090003
 C         1.461786         0.185160        -0.062428
 O         1.850367        -1.254410         0.001095
 C         3.029986        -0.478038         0.041371
 C         2.435369         0.476318         1.062464
 C         2.971551         1.950649         1.200300
 O         2.741390         2.595523        -0.090075
 C         3.104794         1.739796        -1.185090
 C         2.590694         0.367554        -1.112431
 H        -0.221661         0.027093         1.149763
 H        -0.326678         1.340251         0.059730
 H        -0.626627        -0.291038        -0.563247
 H         3.969167        -1.207142         0.029734
 H         2.168831         0.041450         2.037396
 H         2.589308         2.612913         2.035451
 H         4.048230         1.942866         1.434551
 H         2.573822         2.240397        -2.023292
 H         4.219046         1.754079        -1.216426
 H         2.333171        -0.229396        -2.030941
