19
Iteration:  3678
 C        -0.100907         0.455009         0.117512
 C         1.385853         0.127123         0.071003
 O         1.867509        -1.378066         0.101949
 C         3.111116        -0.425468         0.082473
 C         2.418622         0.537202         1.048772
 C         3.014517         1.958004         1.052648
 O         2.732161         2.628439        -0.165129
 C         3.092796         1.772441        -1.259917
 C         2.619598         0.306639        -1.076099
 H        -0.476179         0.046394         1.006015
 H        -0.197736         1.572063         0.027039
 H        -0.548907        -0.015348        -0.669573
 H         3.910572        -1.106321         0.202194
 H         2.454758         0.036466         2.071201
 H         2.537436         2.586804         1.910031
 H         4.065191         1.979376         1.526247
 H         2.595417         2.156623        -2.152702
 H         4.187304         1.860441        -1.499695
 H         2.620308        -0.342892        -1.943801
