19
Iteration:  4549
 C        -0.086944         0.372743         0.063733
 C         1.412490         0.135526         0.063426
 O         1.844502        -1.335826         0.182273
 C         3.149523        -0.500689         0.008593
 C         2.507908         0.503985         1.084516
 C         2.925108         1.979006         1.096344
 O         2.839719         2.683375        -0.156429
 C         3.107833         1.754511        -1.279820
 C         2.491310         0.335918        -1.069740
 H        -0.423374        -0.099588         1.010256
 H        -0.343407         1.502700        -0.114684
 H        -0.637872         0.021844        -0.853440
 H         4.074153        -1.114585         0.045958
 H         2.472320         0.034087         2.075162
 H         2.216074         2.584932         1.632723
 H         3.858993         2.141632         1.628728
 H         2.585219         2.242703        -2.093339
 H         4.181663         1.641435        -1.320405
 H         2.231803         0.062755        -2.120876
