19
Iteration:  3791charge 0 multiplicity 1
 C        -0.150500         0.410207        -0.016846
 C         1.397611         0.156622        -0.020598
 O         1.833901        -1.334435         0.139184
 C         3.105600        -0.425844         0.155527
 C         2.561001         0.522081         1.128990
 C         3.080064         1.942390         1.092804
 O         2.744635         2.610610        -0.189679
 C         3.047489         1.782764        -1.216099
 C         2.545636         0.306432        -1.044025
 H        -0.583473        -0.138557         0.855055
 H        -0.289238         1.449127         0.037989
 H        -0.701316         0.017817        -0.911974
 H         4.031779        -0.929677         0.247186
 H         2.424480        -0.017293         2.132182
 H         2.641051         2.628086         1.875554
 H         4.186639         1.956161         1.155974
 H         2.474642         2.130329        -2.077430
 H         4.164834         1.992413        -1.566613
 H         2.594353        -0.291840        -1.989044
