19
Iteration:  1455charge 0 multiplicity 1
 C        -0.064915         0.449260         0.064264
 C         1.430189         0.126300         0.010486
 O         1.821312        -1.365306        -0.025372
 C         3.157627        -0.493943         0.068974
 C         2.442329         0.491368         1.124182
 C         2.972310         1.903810         1.137645
 O         2.800618         2.615988        -0.077594
 C         3.059033         1.843993        -1.271487
 C         2.573733         0.387514        -1.064766
 H        -0.392565         0.026175         1.024496
 H        -0.285964         1.604847         0.119156
 H        -0.643297        -0.086244        -0.713013
 H         4.177989        -0.965475         0.265686
 H         2.238838         0.142059         2.109569
 H         2.353708         2.493617         1.905273
 H         3.998539         1.914782         1.547218
 H         2.464244         2.290082        -2.091116
 H         4.130085         1.931706        -1.561235
 H         2.411115        -0.312969        -1.889663
