19
Iteration:  3586
 C         0.066018         0.437385        -0.040743
 C         1.413925         0.149143         0.034127
 O         1.865320        -1.306423         0.196914
 C         3.159008        -0.493364         0.069361
 C         2.389628         0.489483         1.104410
 C         3.019734         1.984147         1.104801
 O         2.791857         2.607223        -0.170142
 C         2.952113         1.755016        -1.248060
 C         2.517342         0.348214        -1.032723
 H        -0.503209         0.054766         0.884163
 H        -0.175787         1.434376        -0.051957
 H        -0.549995        -0.035621        -0.891259
 H         4.127898        -1.197938         0.141080
 H         2.162696        -0.054075         1.983644
 H         2.908236         2.692614         1.894158
 H         4.108968         1.870074         1.314069
 H         2.247859         2.215354        -1.995491
 H         3.970387         1.913778        -1.718491
 H         2.222206        -0.194158        -1.971972
