19
Iteration:  1790
 C        -0.059206         0.411233         0.104231
 C         1.383407         0.136281        -0.082210
 O         1.863233        -1.293883         0.040052
 C         3.115482        -0.535897         0.036770
 C         2.451580         0.514644         1.107915
 C         2.986029         1.952533         1.182169
 O         2.763225         2.637472        -0.086485
 C         3.076186         1.770713        -1.215244
 C         2.580812         0.367932        -1.096080
 H        -0.381771         0.302024         1.202239
 H        -0.362506         1.307081        -0.160536
 H        -0.540897        -0.357218        -0.599172
 H         3.994150        -1.162947        -0.021823
 H         2.129990         0.112296         2.108572
 H         2.369215         2.606247         1.894154
 H         4.106195         1.900581         1.455141
 H         2.807090         2.229740        -2.197807
 H         4.190743         1.740559        -1.360102
 H         2.497785        -0.031800        -2.123383
