19
Iteration:  3529
 C         0.007189         0.316353         0.041876
 C         1.416987         0.099797         0.079006
 O         1.892193        -1.299138         0.184561
 C         3.022049        -0.456522         0.021454
 C         2.471947         0.591514         1.098998
 C         3.003954         2.006684         1.131696
 O         2.806004         2.635205        -0.112230
 C         3.123562         1.745396        -1.283720
 C         2.380034         0.320621        -1.127513
 H        -0.465423         0.529135         1.006080
 H         0.098333         1.259404        -0.529703
 H        -0.552586        -0.258953        -0.688941
 H         3.983609        -1.132970        -0.252412
 H         2.132341         0.079885         2.001249
 H         2.379341         2.405088         1.844644
 H         4.020171         1.881882         1.226231
 H         2.835025         2.364067        -2.105541
 H         4.234770         1.750117        -1.235007
 H         2.299367        -0.188010        -2.051798
