19
Iteration:  4217
 C        -0.072561         0.492103         0.103000
 C         1.413473         0.172969         0.016319
 O         1.865049        -1.240583         0.156138
 C         3.161249        -0.519987         0.099392
 C         2.495867         0.448364         1.092954
 C         2.939852         1.950594         1.077851
 O         2.712727         2.538951        -0.161668
 C         3.076665         1.812487        -1.276011
 C         2.590292         0.334580        -1.110741
 H        -0.557504        -0.043218         0.955628
 H        -0.166331         1.522465        -0.030343
 H        -0.621037         0.005855        -0.787386
 H         4.009863        -1.123697         0.117396
 H         2.259486         0.025540         2.104732
 H         2.286068         2.415578         1.762198
 H         4.072307         2.001343         1.285062
 H         2.874090         2.230963        -2.227924
 H         4.302620         1.800733        -1.291483
 H         2.282528        -0.349037        -1.925334
