19
Iteration:  4205
 C        -0.013024         0.420886         0.132460
 C         1.429948         0.182386         0.048036
 O         1.842480        -1.313558         0.087536
 C         3.091309        -0.445221         0.057391
 C         2.424328         0.514021         1.075842
 C         2.938218         1.945713         1.085375
 O         2.706092         2.613558        -0.166495
 C         3.151490         1.680070        -1.266813
 C         2.595366         0.330059        -1.072493
 H        -0.460520         0.215984         1.124220
 H        -0.215288         1.461008         0.185437
 H        -0.498654        -0.008761        -0.779601
 H         4.050232        -0.891530         0.204788
 H         2.068452         0.061685         2.011061
 H         2.604599         2.667024         1.802747
 H         4.070290         1.940117         1.369231
 H         2.541673         2.216104        -1.972557
 H         4.343855         1.743204        -1.443139
 H         2.548533        -0.191178        -2.053684
