19
Iteration:   985charge 0 multiplicity 1
 C         0.005624         0.443561        -0.182001
 C         1.393275         0.117932         0.039686
 O         1.878771        -1.316822         0.203859
 C         3.117226        -0.443449         0.021301
 C         2.519108         0.461672         1.116524
 C         3.115798         1.926730         1.152178
 O         2.746148         2.613133        -0.015834
 C         3.033227         1.831827        -1.182652
 C         2.299677         0.366543        -1.099052
 H        -0.620357        -0.143244         0.417584
 H        -0.195506         1.534451        -0.110276
 H        -0.219834         0.041492        -1.194006
 H         3.982683        -1.170664        -0.010471
 H         2.470599        -0.152485         2.085968
 H         2.917302         2.561355         2.075819
 H         4.228804         1.720917         1.119577
 H         2.537204         2.252792        -2.221564
 H         4.083809         1.872586        -1.501546
 H         2.249715        -0.161351        -2.141037
