19
Iteration:   733charge 0 multiplicity 1
 C        -0.152181         0.496767         0.161437
 C         1.386007         0.105321        -0.024245
 O         1.903860        -1.362448        -0.016524
 C         3.104786        -0.478927         0.087952
 C         2.507478         0.449689         1.038385
 C         2.971657         1.908642         1.099919
 O         2.696753         2.576707        -0.071493
 C         3.171731         1.843135        -1.218606
 C         2.570510         0.392043        -1.079539
 H        -0.606817         0.357630         1.230941
 H        -0.295492         1.449268        -0.165766
 H        -0.768397        -0.117995        -0.690109
 H         4.034483        -0.901973         0.238692
 H         2.388470         0.141695         2.014514
 H         2.589826         2.568750         1.850850
 H         4.081500         1.903893         1.441699
 H         2.752953         2.385892        -2.103351
 H         4.253760         1.926511        -1.313270
 H         2.483724        -0.196652        -1.977513
