19
Iteration:  3494charge 0 multiplicity 1
 C        -0.193256         0.395885         0.071203
 C         1.410922         0.185613         0.060345
 O         1.888969        -1.249943         0.110097
 C         3.095001        -0.530745         0.087319
 C         2.580275         0.479959         1.099258
 C         2.977523         1.953331         1.066181
 O         2.739656         2.614453        -0.171538
 C         3.132571         1.790098        -1.275775
 C         2.566893         0.318199        -1.035553
 H        -0.676600         0.129427         0.994828
 H        -0.268593         1.560762        -0.032580
 H        -0.613880        -0.183461        -0.692265
 H         4.016668        -1.130882        -0.077989
 H         2.263858         0.028424         2.085898
 H         2.420613         2.482521         1.810810
 H         3.910944         2.224991         1.429261
 H         2.559418         2.109343        -2.116144
 H         4.220967         1.769142        -1.553305
 H         2.517500        -0.376694        -1.835145
