19
Iteration:   884
 C         0.003685         0.440779         0.022394
 C         1.469026         0.138263         0.074328
 O         1.869270        -1.264692         0.094776
 C         3.087671        -0.498200        -0.064740
 C         2.521935         0.477453         1.056373
 C         2.933835         1.934473         1.129824
 O         2.743178         2.567971        -0.069310
 C         3.119942         1.755196        -1.172715
 C         2.428768         0.407382        -1.076655
 H        -0.530389         0.066649         0.957805
 H        -0.180450         1.405944        -0.112457
 H        -0.386599        -0.168254        -0.825841
 H         3.974013        -0.983716        -0.108646
 H         2.468528         0.024243         2.017819
 H         2.246893         2.416592         1.811112
 H         4.010816         2.091737         1.416688
 H         2.919607         2.333119        -2.145167
 H         4.209261         1.512073        -1.148927
 H         1.936388         0.136330        -1.987247
