19
Iteration:  4381
 C        -0.077975         0.377976         0.103033
 C         1.356533         0.093506         0.092229
 O         1.869170        -1.286882         0.119225
 C         3.098615        -0.472750         0.022279
 C         2.472059         0.535290         1.107950
 C         2.940320         1.933799         1.101482
 O         2.842895         2.618349        -0.184832
 C         3.130485         1.769011        -1.272035
 C         2.544796         0.361197        -1.090340
 H        -0.558087        -0.067026         1.027464
 H        -0.157852         1.451599         0.007300
 H        -0.814227         0.067540        -0.731959
 H         3.963001        -1.074040         0.176421
 H         2.272962         0.037988         2.106076
 H         2.269433         2.585576         1.765809
 H         3.965996         2.155057         1.575258
 H         2.664580         2.201776        -2.191838
 H         4.260344         1.947828        -1.537191
 H         2.412625        -0.236022        -2.017991
