19
Iteration:   477
 C        -0.023197         0.425522        -0.080098
 C         1.415268         0.091913        -0.004415
 O         1.867606        -1.290800         0.098911
 C         3.144372        -0.448224         0.071407
 C         2.505191         0.486086         1.111396
 C         3.111727         1.904508         1.088267
 O         2.765693         2.571595        -0.040339
 C         2.958185         1.796657        -1.215405
 C         2.415503         0.417068        -1.007190
 H        -0.708743        -0.153660         0.529350
 H        -0.179557         1.632775         0.174748
 H        -0.417011         0.407167        -1.068854
 H         4.105308        -1.002937         0.003880
 H         2.145943        -0.039908         2.061388
 H         2.879362         2.429173         2.038028
 H         4.227739         1.880347         1.187123
 H         2.469923         2.421411        -2.046360
 H         4.013160         1.645054        -1.576082
 H         2.251550        -0.244474        -1.895819
