19
Iteration:   616charge 0 multiplicity 1
 C        -0.143157         0.416780         0.019925
 C         1.446530         0.198699        -0.021256
 O         1.782275        -1.320470         0.051099
 C         3.145068        -0.466865         0.145355
 C         2.471072         0.503413         1.096531
 C         3.103022         1.831325         1.119465
 O         2.762441         2.576100        -0.079949
 C         2.960751         1.915093        -1.276002
 C         2.676023         0.341786        -1.060558
 H        -0.562455        -0.087638         0.897016
 H        -0.321258         1.446767        -0.023627
 H        -0.404999        -0.015399        -0.903159
 H         4.091749        -1.021934         0.367649
 H         2.390211         0.033237         2.089117
 H         2.553756         2.357318         1.901150
 H         4.160033         1.841567         1.451667
 H         2.217750         2.242120        -1.967277
 H         3.905700         2.047601        -1.773141
 H         2.587288        -0.264062        -1.953297
