19
Iteration:  4582
 C        -0.024958         0.349412         0.020649
 C         1.400182         0.146368         0.041998
 O         1.831657        -1.254401         0.142791
 C         3.192223        -0.440446         0.055016
 C         2.491288         0.525967         1.109177
 C         2.962819         1.967008         1.099854
 O         2.811412         2.598562        -0.170796
 C         3.062052         1.711415        -1.243223
 C         2.472303         0.379428        -1.073946
 H        -0.572932        -0.074125         0.890069
 H        -0.349456         1.416123         0.426648
 H        -0.525861        -0.031501        -0.918965
 H         4.052857        -1.150173         0.136635
 H         2.412792         0.054770         2.092115
 H         2.216062         2.565885         1.694696
 H         4.037013         1.957453         1.597587
 H         2.660684         2.224100        -2.111769
 H         4.100858         1.589286        -1.517252
 H         2.256711        -0.173078        -2.051027
