19
Iteration:  3521
 C        -0.021969         0.376690         0.029923
 C         1.403714         0.083975         0.053736
 O         1.883096        -1.302914         0.205851
 C         3.065858        -0.453830         0.007413
 C         2.481486         0.543387         1.028064
 C         3.012314         1.993942         1.122469
 O         2.782603         2.615599        -0.134895
 C         3.155860         1.779335        -1.216913
 C         2.358526         0.330921        -1.129610
 H        -0.520442         0.412699         1.024558
 H        -0.078414         1.319448        -0.378475
 H        -0.507370        -0.448644        -0.594891
 H         4.110136        -0.874866         0.113812
 H         2.318350        -0.016356         1.933638
 H         2.472293         2.604409         1.910915
 H         4.107476         2.127660         1.496592
 H         2.875216         2.313620        -2.162355
 H         4.203179         1.569089        -1.264921
 H         2.142086        -0.310601        -2.047278
