19
Iteration:  4184charge 0 multiplicity 1
 C        -0.086501         0.386350         0.079101
 C         1.380825         0.072251        -0.079565
 O         1.875015        -1.301104         0.073654
 C         3.109629        -0.503396         0.180239
 C         2.489960         0.495771         1.114296
 C         3.021322         1.989347         1.061624
 O         2.809846         2.635409        -0.167557
 C         3.047021         1.784472        -1.281412
 C         2.515304         0.356997        -1.040892
 H        -0.424493         0.171100         1.174977
 H        -0.222098         1.444091         0.186968
 H        -0.827123        -0.062594        -0.716965
 H         3.920735        -1.153353         0.273569
 H         2.178881         0.238416         2.175027
 H         2.472829         2.677302         1.659641
 H         4.088193         2.105342         1.387694
 H         2.828288         2.486063        -2.092031
 H         4.231194         1.631229        -1.145280
 H         2.312525        -0.318890        -1.903237
