19
Iteration:  4176charge 0 multiplicity 1
 C        -0.123195         0.363089         0.068951
 C         1.374189         0.110156         0.021194
 O         1.865372        -1.308666         0.118407
 C         3.100764        -0.509608         0.141961
 C         2.519470         0.494740         1.107601
 C         3.021994         1.971055         1.035679
 O         2.817291         2.672684        -0.157382
 C         3.106030         1.783853        -1.261815
 C         2.498941         0.355700        -1.077598
 H        -0.593788         0.037986         1.083438
 H        -0.213909         1.466773        -0.057545
 H        -0.738966        -0.021310        -0.862754
 H         4.049012        -1.040673         0.287991
 H         2.053035         0.041517         2.053975
 H         2.511632         2.579189         1.836851
 H         3.990896         2.083033         1.433874
 H         2.604164         2.315968        -2.088564
 H         4.114581         1.602200        -1.533335
 H         2.571320        -0.165037        -2.056222
