19
Iteration:  2034
 C        -0.123624         0.444670        -0.129332
 C         1.363710         0.164704         0.081792
 O         1.935246        -1.336410         0.109250
 C         3.120192        -0.529978         0.012184
 C         2.575086         0.451611         1.087649
 C         2.994183         1.948186         1.188616
 O         2.911141         2.679635        -0.038711
 C         2.933189         1.746011        -1.272910
 C         2.487117         0.356103        -0.995050
 H        -0.761154        -0.208053         0.524559
 H        -0.245363         1.579175        -0.257861
 H        -0.273456         0.207517        -1.201667
 H         4.111087        -1.022355         0.076283
 H         2.390027         0.046992         2.107796
 H         2.252721         2.548862         1.751505
 H         3.936813         2.035988         1.741211
 H         2.033515         2.126836        -1.817760
 H         3.914211         1.879851        -1.780654
 H         2.158331        -0.111911        -2.033071
