19
Iteration:  1425
 C        -0.124817         0.423526         0.032405
 C         1.405326         0.126271        -0.006966
 O         1.872028        -1.318891         0.116760
 C         3.161680        -0.558517        -0.046638
 C         2.567906         0.469899         1.073303
 C         2.939265         1.947212         1.174652
 O         2.777114         2.631140        -0.082449
 C         3.165603         1.816716        -1.198327
 C         2.442275         0.426729        -1.135365
 H        -0.472998         0.198343         0.968801
 H        -0.405801         1.502247        -0.148854
 H        -0.659586        -0.198492        -0.588804
 H         4.063492        -1.083597        -0.001139
 H         2.325180         0.025528         2.042107
 H         2.154637         2.450262         1.856956
 H         3.951227         2.056063         1.696859
 H         2.738676         2.387277        -2.047751
 H         4.230200         1.553981        -1.102787
 H         2.251442        -0.157445        -2.038036
