19
Iteration:  3095
 C        -0.133641         0.333709        -0.066301
 C         1.395049         0.136879         0.054530
 O         1.851149        -1.294151         0.234416
 C         3.126828        -0.522445         0.002187
 C         2.476329         0.507472         1.107933
 C         3.128330         1.982846         1.089956
 O         2.756314         2.698928        -0.139664
 C         3.057326         1.787525        -1.189456
 C         2.516434         0.325163        -1.087331
 H        -0.659786        -0.223912         0.696534
 H        -0.297999         1.315974         0.046941
 H        -0.512580         0.026631        -1.030733
 H         4.050554        -1.118967         0.060383
 H         2.503251        -0.063743         2.010686
 H         2.667578         2.527638         1.907223
 H         4.174371         2.048591         1.353345
 H         2.535387         2.216436        -2.103554
 H         4.092333         1.893251        -1.429219
 H         2.172724        -0.156683        -2.053570
