19
Iteration:  4927charge 0 multiplicity 1
 C        -0.020301         0.461884         0.141007
 C         1.375823         0.144557         0.012045
 O         1.925851        -1.369596         0.072260
 C         3.076834        -0.463929         0.143861
 C         2.452908         0.556638         1.116815
 C         2.931786         1.989173         1.075293
 O         2.783185         2.601449        -0.194765
 C         3.108141         1.708238        -1.237397
 C         2.500701         0.327816        -1.091148
 H        -0.469986        -0.143146         0.979516
 H        -0.220770         1.472015         0.125254
 H        -0.547051         0.236074        -0.815697
 H         4.112002        -0.807183         0.161949
 H         2.135173         0.096479         2.112906
 H         2.390968         2.630534         1.711696
 H         4.038596         1.953816         1.293573
 H         2.784343         2.361338        -2.107515
 H         4.258018         1.636426        -1.529344
 H         2.309594        -0.290429        -1.992295
