19
Iteration:  1337charge 0 multiplicity 1
 C        -0.027587         0.479889        -0.085415
 C         1.430511         0.136561        -0.015853
 O         1.873484        -1.319903         0.123246
 C         3.099629        -0.423296         0.108484
 C         2.499203         0.435622         1.148065
 C         3.040525         1.822865         1.138607
 O         2.777346         2.584723        -0.053666
 C         2.952322         1.849620        -1.297329
 C         2.508805         0.371227        -1.078657
 H        -0.574258        -0.036072         0.616851
 H        -0.080198         1.599523         0.177743
 H        -0.392359         0.271082        -1.026186
 H         4.006639        -0.848402         0.177335
 H         2.319370        -0.031744         2.129034
 H         2.697888         2.419754         1.981555
 H         4.088023         1.761962         1.319264
 H         2.164514         2.287814        -1.873234
 H         4.040626         1.919420        -1.689654
 H         2.520874        -0.102402        -2.031176
