19
Iteration:  1124
 C        -0.094869         0.404269        -0.019616
 C         1.438473         0.220193        -0.002542
 O         1.813409        -1.328889         0.063418
 C         3.092435        -0.506344         0.080027
 C         2.526059         0.494908         1.095106
 C         3.034748         1.868144         1.143235
 O         2.720237         2.582561        -0.044762
 C         3.042720         1.834307        -1.235227
 C         2.627178         0.381475        -1.105093
 H        -0.583199        -0.081384         0.965303
 H        -0.170495         1.494223         0.115188
 H        -0.738800         0.151525        -0.967604
 H         4.024179        -1.120409         0.206943
 H         2.425327        -0.020784         2.061727
 H         2.643013         2.603097         1.930066
 H         4.157293         1.864721         1.406345
 H         2.429076         2.400017        -1.942036
 H         4.035854         1.890247        -1.486108
 H         2.482638        -0.054895        -2.152624
