19
Iteration:  1815
 C        -0.114325         0.339619        -0.077544
 C         1.338605         0.098529         0.089381
 O         1.851236        -1.291343         0.082983
 C         3.099850        -0.444158         0.002450
 C         2.547053         0.506938         1.112260
 C         3.063526         1.924838         1.145193
 O         2.763240         2.614382        -0.072988
 C         3.113581         1.785563        -1.211727
 C         2.470131         0.419215        -1.039177
 H        -0.626367         0.079260         0.925891
 H        -0.395884         1.477084        -0.301675
 H        -0.477942        -0.236458        -0.944383
 H         4.186951        -0.940836         0.216781
 H         2.535300         0.039854         2.089569
 H         2.588508         2.507814         1.876244
 H         4.184353         1.841449         1.274121
 H         2.740739         2.203503        -2.134765
 H         4.265000         1.817290        -1.428025
 H         2.188613         0.027638        -2.073002
