19
Iteration:   298
 C        -0.091971         0.423495         0.024574
 C         1.453420         0.197119        -0.046489
 O         1.831581        -1.310567        -0.005728
 C         3.033559        -0.474573         0.155363
 C         2.479649         0.487663         1.048039
 C         3.184844         1.891286         1.122908
 O         2.752294         2.614240        -0.043526
 C         2.920873         1.824546        -1.245859
 C         2.590589         0.343739        -1.013038
 H        -0.330516        -0.249318         0.850660
 H        -0.173834         1.402516         0.297890
 H        -0.510761         0.130403        -1.033878
 H         3.964501        -1.081385         0.440143
 H         2.165615         0.078449         2.032813
 H         2.742806         2.471935         1.983359
 H         4.275377         1.731045         1.266791
 H         2.350004         2.212450        -2.144008
 H         3.946310         1.872755        -1.558462
 H         2.619414        -0.192348        -1.987924
