19
Iteration:  1394charge 0 multiplicity 1
 C        -0.060428         0.415764         0.012559
 C         1.412416         0.101595         0.085473
 O         1.868850        -1.268819         0.067227
 C         3.128966        -0.458253        -0.025039
 C         2.493400         0.451931         1.100838
 C         3.003391         1.900076         1.154306
 O         2.722614         2.591146        -0.087696
 C         3.119083         1.782341        -1.187050
 C         2.480725         0.421753        -1.091566
 H        -0.609492         0.245246         0.969859
 H        -0.321142         1.434728        -0.311727
 H        -0.582790        -0.174028        -0.767752
 H         4.000732        -1.055561         0.058417
 H         2.243913         0.082177         2.124951
 H         2.503294         2.552216         1.806208
 H         4.061022         1.857847         1.357165
 H         2.959031         2.385833        -2.105406
 H         4.255842         1.712676        -1.403480
 H         2.339518        -0.030469        -2.085701
