19
Iteration:  2748charge 0 multiplicity 1
 C        -0.055528         0.481928        -0.053999
 C         1.445014         0.135776         0.053800
 O         1.902218        -1.329259         0.138827
 C         3.160157        -0.456148         0.077935
 C         2.439162         0.496847         1.102140
 C         3.042021         1.902717         1.160572
 O         2.774659         2.527934        -0.097278
 C         2.916310         1.842347        -1.302930
 C         2.559372         0.373122        -1.061900
 H        -0.543275         0.174629         0.906591
 H        -0.192886         1.521336        -0.163569
 H        -0.392635        -0.134109        -0.911747
 H         4.158101        -1.055344         0.323161
 H         2.206899         0.065196         2.081934
 H         2.558246         2.595583         1.920267
 H         4.135500         1.850799         1.415812
 H         2.171453         2.190261        -2.057070
 H         3.785747         1.981406        -1.949275
 H         2.453560        -0.139354        -2.027379
