19
Iteration:   292charge 0 multiplicity 1
 C        -0.092793         0.405909         0.033248
 C         1.445679         0.195699        -0.037260
 O         1.793514        -1.308225         0.009356
 C         3.084036        -0.555698         0.154364
 C         2.444865         0.484893         1.034068
 C         3.138793         1.904632         1.089427
 O         2.778409         2.621996        -0.042117
 C         2.922423         1.829001        -1.215594
 C         2.659304         0.375347        -1.023805
 H        -0.406692        -0.294616         0.852333
 H        -0.364728         1.555625         0.259058
 H        -0.448957         0.162898        -0.891255
 H         3.965402        -1.078243         0.306151
 H         2.289571         0.106380         2.034255
 H         2.761133         2.510889         1.869434
 H         4.241938         1.798209         1.183035
 H         2.262450         2.201278        -1.985828
 H         3.970595         2.054570        -1.662159
 H         2.594440        -0.163359        -1.947747
