19
Iteration:   426
 C         0.000829         0.419720        -0.001456
 C         1.435542         0.113325         0.024480
 O         1.803318        -1.307355         0.072284
 C         3.117104        -0.536663         0.048903
 C         2.505848         0.460104         1.104122
 C         3.071899         1.898467         1.153751
 O         2.763939         2.686862        -0.074024
 C         3.010437         1.848989        -1.213261
 C         2.448418         0.402504        -1.124662
 H        -0.438555         0.142524         0.948031
 H        -0.196682         1.502650        -0.086903
 H        -0.529398        -0.187984        -0.826416
 H         4.168872        -0.933074         0.161041
 H         2.366847        -0.127175         2.034704
 H         2.484043         2.377184         2.004847
 H         4.166032         1.720111         1.324950
 H         2.656911         2.360054        -2.092394
 H         4.095899         1.630777        -1.401709
 H         2.310963        -0.277657        -2.034040
