19
Iteration:  4410charge 0 multiplicity 1
 C        -0.009431         0.425306         0.076380
 C         1.418361         0.163176         0.018377
 O         1.829630        -1.325447         0.085720
 C         3.133479        -0.563550         0.121177
 C         2.481475         0.544286         1.081184
 C         2.970045         1.958593         1.079692
 O         2.769807         2.636442        -0.174825
 C         3.066721         1.797158        -1.268342
 C         2.560014         0.315393        -1.041980
 H        -0.276521         0.002246         1.050126
 H        -0.234699         1.574797         0.035598
 H        -0.631053         0.119106        -0.753994
 H         4.056832        -1.195675         0.413449
 H         2.193396         0.092005         2.008818
 H         2.411252         2.542321         1.869062
 H         3.990197         2.041043         1.417256
 H         2.301764         2.080588        -2.050495
 H         4.073807         1.922876        -1.530110
 H         2.324672        -0.288520        -1.929877
