19
Iteration:  3308charge 0 multiplicity 1
 C        -0.065460         0.378734        -0.014199
 C         1.410697         0.112172         0.114151
 O         1.819144        -1.327824         0.237068
 C         3.089437        -0.501042         0.029169
 C         2.555727         0.497040         1.044242
 C         2.949048         1.908830         1.140828
 O         2.830187         2.663216        -0.141206
 C         3.089745         1.814028        -1.307815
 C         2.497070         0.388804        -1.091442
 H        -0.716547         0.146209         0.811852
 H        -0.252603         1.481696        -0.194110
 H        -0.462115        -0.201832        -0.827612
 H         4.228561        -0.886118        -0.012111
 H         2.499416         0.021848         2.048377
 H         2.279172         2.433632         1.839603
 H         3.963689         2.085052         1.573532
 H         2.447733         2.189448        -2.096082
 H         4.164830         1.832002        -1.713112
 H         2.390407        -0.100354        -2.030637
