19
Iteration:   133charge 0 multiplicity 1
 C        -0.076790         0.486325        -0.109804
 C         1.368101         0.061551         0.028803
 O         1.859782        -1.428453         0.145494
 C         3.066054        -0.559030         0.012133
 C         2.617090         0.506626         1.071471
 C         3.128072         2.019116         1.121781
 O         2.747822         2.643039        -0.017676
 C         3.034251         1.847774        -1.160870
 C         2.388275         0.370276        -1.077255
 H        -0.807163         0.027495         0.493144
 H        -0.091587         1.503528         0.140720
 H        -0.284847         0.266388        -1.229928
 H         4.153224        -1.114846        -0.057938
 H         2.657478         0.148723         2.173781
 H         2.459300         2.489030         1.948167
 H         4.199505         1.975422         1.386443
 H         2.677295         2.442672        -2.138085
 H         4.120044         1.787557        -1.418958
 H         2.136090        -0.204418        -2.063195
