19
Iteration:  2751
 C        -0.058770         0.474965        -0.046934
 C         1.391692         0.140739         0.057273
 O         1.920877        -1.317384         0.142021
 C         3.168244        -0.459551         0.081466
 C         2.487792         0.482350         1.094592
 C         3.021225         1.911936         1.175818
 O         2.778164         2.524820        -0.097497
 C         2.930086         1.830467        -1.311601
 C         2.549630         0.374708        -1.065615
 H        -0.647430         0.257138         0.846629
 H        -0.177584         1.489170        -0.227826
 H        -0.344219        -0.073356        -0.918501
 H         3.964375        -1.069112         0.248792
 H         2.255391         0.105781         2.107356
 H         2.526581         2.535052         1.997568
 H         4.105343         1.845107         1.245067
 H         2.076950         2.148754        -2.073874
 H         3.898206         2.068388        -1.858426
 H         2.529199        -0.145655        -1.987079
