19
Iteration:  1242
 C        -0.151364         0.451623         0.116846
 C         1.409877         0.070749        -0.017257
 O         1.860040        -1.351249        -0.055198
 C         3.148085        -0.432304         0.125465
 C         2.477244         0.439342         1.077803
 C         2.944206         1.907573         1.116718
 O         2.786272         2.604151        -0.089334
 C         3.142799         1.829276        -1.217183
 C         2.555780         0.417215        -1.080758
 H        -0.542391         0.413440         1.162745
 H        -0.191382         1.479874        -0.146688
 H        -0.877177        -0.096577        -0.510379
 H         4.123964        -1.092348         0.166432
 H         2.223732         0.193436         2.100376
 H         2.535387         2.448242         1.920726
 H         4.053070         1.974368         1.312201
 H         2.640336         2.380663        -2.007953
 H         4.216787         1.796882        -1.295455
 H         2.403813        -0.198785        -1.949477
