19
Iteration:  3007
 C         0.045030         0.503221         0.019177
 C         1.455677         0.087796         0.078061
 O         1.887092        -1.301752         0.146938
 C         3.138920        -0.540903        -0.032936
 C         2.503272         0.483366         1.084164
 C         2.924369         1.996378         1.155660
 O         2.704853         2.652472        -0.116518
 C         3.045836         1.772360        -1.234145
 C         2.471168         0.287119        -1.067784
 H        -0.575695         0.361170         0.889189
 H        -0.073504         1.523805        -0.245374
 H        -0.400833        -0.039502        -0.780895
 H         4.008540        -1.250616        -0.152926
 H         2.496830         0.064726         2.101095
 H         2.227526         2.587583         1.772458
 H         4.014412         2.012280         1.557935
 H         2.620990         2.296323        -2.191727
 H         4.106320         1.622831        -1.512170
 H         2.337645        -0.310334        -2.038920
