19
Iteration:  4544charge 0 multiplicity 1
 C        -0.082975         0.400531         0.062370
 C         1.428893         0.077011         0.045986
 O         1.853913        -1.281561         0.172192
 C         3.133691        -0.494855         0.026516
 C         2.488695         0.482873         1.083250
 C         2.917252         1.968597         1.053416
 O         2.855027         2.667249        -0.158272
 C         3.065308         1.744736        -1.215592
 C         2.496555         0.352715        -1.084878
 H        -0.475103        -0.079993         0.970493
 H        -0.132116         1.438298        -0.021264
 H        -0.625183        -0.137191        -0.757119
 H         4.125654        -0.935292         0.153253
 H         2.413938         0.016548         2.081658
 H         2.199583         2.585509         1.769364
 H         3.976043         2.185240         1.549838
 H         2.743729         2.185315        -2.208371
 H         4.179729         1.707225        -1.448441
 H         2.129600         0.035456        -2.057920
