19
Iteration:  3862
 C         0.017458         0.537265         0.083965
 C         1.376045         0.143477        -0.021967
 O         1.934675        -1.325203         0.134817
 C         3.104240        -0.491796         0.076429
 C         2.436795         0.479103         1.132382
 C         2.909344         1.953226         1.121225
 O         2.725616         2.573444        -0.182223
 C         3.040440         1.708782        -1.281704
 C         2.592355         0.366388        -1.067908
 H        -0.469821         0.220873         1.008179
 H        -0.133449         1.682618        -0.017986
 H        -0.628468         0.121719        -0.678986
 H         4.040966        -1.110120         0.234200
 H         2.430778         0.071412         2.085871
 H         2.333264         2.539556         1.750420
 H         4.053193         2.000856         1.382058
 H         2.715368         2.263029        -2.189024
 H         4.220704         1.629780        -1.470288
 H         2.396945        -0.201094        -1.949753
