19
Iteration:  1768
 C         0.008397         0.438163         0.125476
 C         1.399352         0.134376        -0.040210
 O         1.818705        -1.316936         0.071697
 C         3.121773        -0.459004         0.105127
 C         2.503600         0.415477         1.073039
 C         2.869483         1.871653         1.081813
 O         2.767346         2.589300        -0.091272
 C         3.128128         1.896037        -1.242896
 C         2.587090         0.378387        -1.112226
 H        -0.355294         0.466414         1.224158
 H        -0.124737         1.380689        -0.186289
 H        -0.747592        -0.083843        -0.559525
 H         4.014399        -1.032649         0.144199
 H         2.359170         0.044604         2.126392
 H         2.078268         2.312146         1.766334
 H         3.927813         1.893985         1.487936
 H         2.712260         2.489203        -2.121536
 H         4.224897         1.853097        -1.543872
 H         2.366795        -0.233467        -2.001676
