19
Iteration:  3683charge 0 multiplicity 1
 C        -0.060943         0.444990         0.110650
 C         1.414006         0.129776         0.053957
 O         1.879114        -1.353863         0.094155
 C         3.125003        -0.440709         0.106779
 C         2.422926         0.534196         1.101196
 C         2.966873         1.971060         1.023689
 O         2.767289         2.633294        -0.136054
 C         3.087435         1.735286        -1.272166
 C         2.563181         0.332722        -1.103395
 H        -0.626920         0.133311         1.064786
 H        -0.193481         1.508771        -0.026782
 H        -0.730008        -0.058937        -0.718699
 H         4.020389        -1.110038         0.393431
 H         2.425216        -0.097973         1.993672
 H         2.602564         2.510049         1.857969
 H         3.995134         1.991290         1.360095
 H         2.549034         2.174660        -2.126654
 H         4.155887         1.820877        -1.442802
 H         2.483962        -0.278084        -2.029012
