19
Iteration:  4498charge 0 multiplicity 1
 C        -0.106062         0.453967         0.017052
 C         1.412553         0.168018         0.028075
 O         1.885079        -1.271952         0.130495
 C         3.126326        -0.488491         0.149677
 C         2.529365         0.493073         1.076118
 C         3.006643         1.895934         1.081698
 O         2.723506         2.586798        -0.144926
 C         2.989048         1.789709        -1.268807
 C         2.589655         0.323105        -1.028487
 H        -0.569770         0.200964         0.947647
 H        -0.181772         1.505004        -0.324579
 H        -0.611772        -0.112691        -0.744609
 H         3.990066        -1.226892         0.180293
 H         2.295738         0.109938         2.064991
 H         2.663760         2.598381         1.870179
 H         4.198981         1.876512         1.276794
 H         2.391507         2.265587        -2.120292
 H         4.017552         1.922804        -1.727777
 H         2.741670        -0.249783        -1.945139
