19
Iteration:   210
 C         0.008542         0.447302         0.051514
 C         1.417615         0.136160         0.027081
 O         1.807342        -1.340743         0.084458
 C         3.101106        -0.532529         0.030177
 C         2.521187         0.464940         1.020452
 C         2.938517         1.885150         1.077350
 O         2.826148         2.619355        -0.088887
 C         3.068646         1.838534        -1.168164
 C         2.512359         0.450165        -1.081626
 H        -0.379950         0.361687         1.051683
 H        -0.234675         1.455624        -0.125495
 H        -0.713224        -0.350075        -0.538166
 H         4.125668        -1.191703         0.109426
 H         2.259349         0.131236         2.083164
 H         2.205087         2.375076         1.881478
 H         3.992393         1.976387         1.487606
 H         2.588379         2.407294        -2.126169
 H         4.201389         1.858111        -1.325799
 H         2.252585        -0.206972        -2.004757
