19
Iteration:   738charge 0 multiplicity 1
 C        -0.166034         0.479302         0.139661
 C         1.416231         0.111023        -0.034588
 O         1.909239        -1.339301        -0.003757
 C         3.094119        -0.458179         0.053561
 C         2.522101         0.452808         1.051151
 C         2.955411         1.906414         1.161200
 O         2.715762         2.571699        -0.100436
 C         3.149467         1.862193        -1.222548
 C         2.543023         0.355340        -1.065024
 H        -0.516789         0.324144         1.104717
 H        -0.195220         1.614497        -0.268769
 H        -0.660984        -0.068268        -0.562707
 H         4.188899        -0.895884         0.175580
 H         2.369173         0.086468         2.149306
 H         2.575775         2.547691         2.017211
 H         4.023788         1.808594         1.371010
 H         2.745674         2.182433        -2.183974
 H         4.290639         1.904812        -1.217733
 H         2.250147        -0.182806        -2.017012
