19
Iteration:  4678charge 0 multiplicity 1
 C        -0.034285         0.557862        -0.144444
 C         1.377865         0.246102         0.040739
 O         1.953921        -1.372527         0.191432
 C         3.134217        -0.521151         0.080455
 C         2.584281         0.480216         1.103647
 C         3.058602         1.914847         1.117391
 O         2.680494         2.661457        -0.153271
 C         2.958021         1.714057        -1.179121
 C         2.451181         0.281478        -1.047907
 H        -0.544163         0.506656         0.818810
 H        -0.321247         1.499890        -0.241938
 H        -0.519687        -0.238748        -0.759865
 H         4.048887        -1.054405         0.168098
 H         2.474897        -0.095594         2.050570
 H         2.488328         2.446322         2.019010
 H         4.047703         2.148455         1.198935
 H         2.618040         2.172605        -2.140179
 H         4.103924         1.768062        -1.465436
 H         2.339520        -0.305998        -1.997615
