19
Iteration:  2294
 C        -0.023076         0.423625         0.092460
 C         1.399694         0.125169        -0.071005
 O         1.900601        -1.313112         0.052401
 C         3.079228        -0.493089         0.071080
 C         2.415211         0.511457         1.096226
 C         2.883522         1.919886         1.186936
 O         2.824501         2.589859        -0.123942
 C         3.099362         1.798784        -1.269062
 C         2.573377         0.416881        -1.039664
 H        -0.177402        -0.031929         1.164920
 H        -0.235523         1.434534        -0.137927
 H        -0.779804        -0.108293        -0.567865
 H         4.020510        -1.153773        -0.077975
 H         2.152548         0.026464         2.071190
 H         2.323397         2.563370         1.905506
 H         3.931515         1.955859         1.537374
 H         2.555548         2.373420        -2.089555
 H         4.145731         1.679771        -1.546667
 H         2.582352        -0.047993        -2.013733
