19
Iteration:  1802
 C        -0.138506         0.364720         0.002091
 C         1.399017         0.131504        -0.058542
 O         1.853968        -1.301982         0.007687
 C         3.086543        -0.463119         0.115087
 C         2.570609         0.500846         1.101144
 C         3.063020         1.986862         1.139230
 O         2.773736         2.605792        -0.082860
 C         3.080906         1.785778        -1.175365
 C         2.469965         0.369567        -1.090341
 H        -0.517682         0.125242         1.076541
 H        -0.269631         1.361829        -0.225454
 H        -0.814006        -0.288833        -0.644060
 H         4.078822        -1.013511         0.080403
 H         2.377757         0.082504         2.111225
 H         2.467911         2.470075         1.946755
 H         4.151455         2.187533         1.473330
 H         2.723313         2.431271        -1.987205
 H         4.176258         1.566873        -1.175040
 H         2.448618        -0.344683        -1.952375
