19
Iteration:   896charge 0 multiplicity 1
 C        -0.103780         0.496296         0.078465
 C         1.360364         0.170006         0.041009
 O         1.906870        -1.341613         0.091755
 C         3.148308        -0.480701        -0.039667
 C         2.589880         0.458283         1.053511
 C         2.910804         1.926973         1.196685
 O         2.704133         2.591156        -0.113555
 C         3.199592         1.744737        -1.191902
 C         2.447530         0.401030        -1.129050
 H        -0.589363         0.270781         1.061414
 H        -0.209304         1.482100        -0.132521
 H        -0.645634        -0.022214        -0.769645
 H         4.073472        -0.976915        -0.164011
 H         2.441535        -0.081349         1.989881
 H         2.334872         2.449979         1.960491
 H         3.953771         1.987613         1.613048
 H         2.773151         2.390720        -2.098581
 H         4.317586         1.710186        -1.278553
 H         2.385851        -0.253403        -2.035624
