19
Iteration:  2543
 C        -0.150488         0.386800        -0.076856
 C         1.368887         0.208650         0.051407
 O         1.873900        -1.288989         0.082184
 C         3.094430        -0.465499         0.063591
 C         2.524847         0.492862         1.081306
 C         3.130094         1.881090         1.131730
 O         2.704214         2.578297        -0.082326
 C         3.005399         1.787115        -1.175690
 C         2.602515         0.385302        -1.069222
 H        -0.609186        -0.013033         0.907184
 H        -0.327509         1.451503         0.004126
 H        -0.468321        -0.112250        -1.045359
 H         4.152922        -0.915544         0.253676
 H         2.483717         0.049295         2.137199
 H         2.590786         2.456873         1.967385
 H         4.198447         1.986671         1.085710
 H         2.381443         2.150768        -2.046390
 H         4.130855         1.912165        -1.425085
 H         2.550948        -0.159889        -2.003159
