19
Iteration:   967charge 0 multiplicity 1
 C        -0.135216         0.458332        -0.135403
 C         1.406302         0.154895         0.040922
 O         1.869072        -1.284980         0.142115
 C         3.110325        -0.524458         0.019890
 C         2.589250         0.500321         1.085041
 C         3.104668         1.883923         1.140097
 O         2.728249         2.572295        -0.033515
 C         2.951994         1.840947        -1.207739
 C         2.555270         0.346453        -1.048218
 H        -0.792770         0.072601         0.659436
 H        -0.205149         1.641806        -0.135979
 H        -0.510825         0.175401        -1.086511
 H         4.218175        -0.891367         0.109554
 H         2.396109         0.090515         2.087875
 H         2.618529         2.278711         2.031827
 H         4.168217         1.957583         1.396771
 H         2.421112         2.203348        -2.097264
 H         4.033882         1.626559        -1.547854
 H         2.349616        -0.127412        -1.977939
