19
Iteration:  1004
 C        -0.043183         0.367585        -0.131616
 C         1.396964         0.142935         0.094115
 O         1.839822        -1.321964         0.115280
 C         3.085285        -0.515690         0.045305
 C         2.484075         0.495287         1.108799
 C         3.147738         1.865151         1.099139
 O         2.776234         2.649776        -0.051352
 C         2.966044         1.820070        -1.206734
 C         2.494031         0.434757        -1.032910
 H        -0.793182        -0.162715         0.588013
 H        -0.135487         1.394485         0.018799
 H        -0.365859         0.013303        -1.183749
 H         4.008981        -1.029579         0.030157
 H         2.347202         0.158312         2.136520
 H         2.666303         2.479679         1.877402
 H         4.234946         1.792508         1.204105
 H         2.711392         2.410626        -2.111522
 H         4.135717         1.998267        -1.367990
 H         2.204813        -0.070379        -2.013962
