19
Iteration:   192
 C        -0.027400         0.423919         0.138734
 C         1.409410         0.165117        -0.061656
 O         1.771030        -1.260144        -0.020295
 C         3.098151        -0.592387         0.084133
 C         2.508710         0.464805         1.126602
 C         2.981342         1.923239         1.218442
 O         2.759445         2.703717        -0.086622
 C         3.064855         1.769970        -1.286558
 C         2.661582         0.329005        -1.103278
 H        -0.389134         0.112480         1.158466
 H        -0.406169         1.425208        -0.164330
 H        -0.535014        -0.165295        -0.522631
 H         3.949647        -1.276064         0.126980
 H         2.177995        -0.046860         2.058261
 H         2.526216         2.595962         1.876037
 H         4.041201         2.037989         1.421595
 H         2.350031         2.159559        -1.988409
 H         4.085104         1.891919        -1.630365
 H         2.598990        -0.081381        -2.117996
