19
Iteration:  2863
 C        -0.051638         0.402406         0.055362
 C         1.370225         0.139864         0.031036
 O         1.867730        -1.380102         0.132248
 C         3.127749        -0.492353         0.063425
 C         2.518247         0.484568         1.112518
 C         2.934852         1.910364         1.056347
 O         2.854940         2.666164        -0.120195
 C         3.001715         1.788862        -1.239332
 C         2.524364         0.392021        -1.110926
 H        -0.521861        -0.095107         0.859314
 H        -0.063529         1.560055         0.270781
 H        -0.494281         0.117807        -0.859421
 H         4.115430        -0.900592         0.141436
 H         2.298407         0.193650         2.181592
 H         2.214908         2.397237         1.787571
 H         3.901640         2.143459         1.539052
 H         2.570175         2.396582        -2.179370
 H         4.007031         1.903888        -1.587279
 H         2.551051        -0.256091        -2.061096
