19
Iteration:  4538
 C        -0.040361         0.395775         0.059337
 C         1.408960         0.043461         0.027098
 O         1.878095        -1.253633         0.147525
 C         3.105282        -0.477894         0.066883
 C         2.488827         0.488219         1.062685
 C         2.911911         1.979198         1.073112
 O         2.859186         2.632376        -0.174926
 C         3.043948         1.753172        -1.192897
 C         2.485086         0.385208        -1.089187
 H        -0.587278         0.127035         1.014094
 H        -0.056877         1.550908         0.126094
 H        -0.544436        -0.246538        -0.711390
 H         4.134693        -0.848823         0.178394
 H         2.300287         0.081285         2.070508
 H         2.309614         2.399022         1.831123
 H         3.948309         2.024070         1.323789
 H         2.786568         2.184941        -2.137465
 H         4.127877         1.660500        -1.456876
 H         2.188773        -0.244459        -1.979387
