19
Iteration:  2959charge 0 multiplicity 1
 C        -0.029643         0.319682         0.032896
 C         1.474919         0.157470         0.075142
 O         1.812562        -1.310609         0.099561
 C         3.134611        -0.467996         0.093768
 C         2.420085         0.557334         1.057671
 C         3.061600         1.940120         1.089198
 O         2.742921         2.587191        -0.089901
 C         3.041304         1.790769        -1.204116
 C         2.530122         0.376754        -1.132192
 H        -0.557480         0.299668         0.998035
 H        -0.219269         1.379087        -0.276320
 H        -0.615438        -0.319166        -0.647292
 H         4.056191        -0.979588         0.176681
 H         2.106143         0.184589         2.059342
 H         2.694382         2.608132         2.006769
 H         4.237745         1.806555         1.064098
 H         2.598450         2.234012        -2.132578
 H         4.162537         1.884194        -1.539874
 H         2.297140        -0.062861        -2.101869
