19
Iteration:  3629
 C        -0.078848         0.446737        -0.005678
 C         1.486996         0.162483         0.079175
 O         1.828986        -1.308549         0.161590
 C         3.119646        -0.510062         0.042473
 C         2.557351         0.517154         1.156800
 C         3.021691         2.004698         1.081946
 O         2.680370         2.575478        -0.154727
 C         3.054905         1.697984        -1.261234
 C         2.504604         0.350167        -1.042209
 H        -0.781438        -0.204276         0.661061
 H        -0.199708         1.544952         0.159076
 H        -0.375574         0.319596        -1.158956
 H         4.295611        -0.889671        -0.059160
 H         2.304286         0.053358         2.099459
 H         2.598771         2.548139         1.936195
 H         4.175649         2.124562         1.240344
 H         2.571398         2.106266        -2.194459
 H         4.209030         1.758805        -1.471552
 H         2.297168        -0.114652        -2.024214
