19
Iteration:  3126charge 0 multiplicity 1
 C        -0.066393         0.311911        -0.020029
 C         1.399002         0.139318         0.082851
 O         1.925201        -1.246239         0.123947
 C         3.091503        -0.454076         0.068896
 C         2.441944         0.530749         1.184444
 C         3.051087         1.936599         1.094241
 O         2.845582         2.607694        -0.160659
 C         2.998115         1.771748        -1.253394
 C         2.454105         0.347114        -1.086054
 H        -0.626518         0.230517         0.902864
 H        -0.107912         1.453245        -0.258042
 H        -0.505876        -0.193650        -0.863903
 H         3.938060        -0.999132         0.236316
 H         2.550258         0.045682         2.142554
 H         2.401527         2.414169         1.896541
 H         4.129536         1.793337         1.363367
 H         2.430737         2.221427        -2.172745
 H         4.089187         1.852639        -1.510355
 H         2.185364        -0.049201        -2.091656
