19
Iteration:  4810charge 0 multiplicity 1
 C        -0.000424         0.380472        -0.053414
 C         1.441407         0.114289         0.012498
 O         1.770382        -1.258167         0.161391
 C         3.112676        -0.480924         0.146115
 C         2.510788         0.552846         1.099017
 C         3.095571         1.952446         1.101704
 O         2.803327         2.574866        -0.146314
 C         2.900817         1.799934        -1.259712
 C         2.572073         0.329620        -1.024654
 H        -0.451325        -0.162136         0.845812
 H        -0.329556         1.382664        -0.251479
 H        -0.514467        -0.031678        -1.013995
 H         4.075751        -0.931576         0.369484
 H         2.393297         0.188846         2.176123
 H         2.500074         2.543282         1.932047
 H         4.186256         1.929429         1.191556
 H         2.265437         2.160573        -2.150393
 H         3.928507         1.836611        -1.664118
 H         2.418164        -0.214913        -2.023463
