19
Iteration:  2902charge 0 multiplicity 1
 C         0.019705         0.362088        -0.091104
 C         1.451375         0.164539         0.074363
 O         1.897409        -1.298037         0.149570
 C         3.064776        -0.405066         0.084978
 C         2.512512         0.493817         1.136989
 C         3.037700         1.914527         1.118530
 O         2.882707         2.592367        -0.108066
 C         2.909757         1.819294        -1.278579
 C         2.405309         0.354433        -1.082065
 H        -0.479310        -0.215337         0.789751
 H        -0.294921         1.376639        -0.004260
 H        -0.507719         0.029334        -1.056102
 H         4.030548        -0.931534        -0.084862
 H         2.271307         0.085891         2.111934
 H         2.359992         2.443678         1.845087
 H         4.038046         2.004427         1.650132
 H         2.370545         2.276738        -2.048910
 H         3.956139         1.539869        -1.571087
 H         2.212974        -0.208346        -1.943221
