19
Iteration:  4458
 C        -0.069525         0.506372        -0.112420
 C         1.389954         0.133075         0.080758
 O         1.910116        -1.294785         0.219662
 C         3.112044        -0.591581         0.048404
 C         2.573156         0.527618         1.126392
 C         3.102960         1.947041         1.061572
 O         2.660647         2.602737        -0.089842
 C         2.971008         1.744449        -1.253627
 C         2.529387         0.346717        -1.047929
 H        -0.846237         0.282147         0.712073
 H        -0.170713         1.537050        -0.427704
 H        -0.384042         0.062479        -1.167082
 H         4.062704        -1.049757        -0.033837
 H         2.570047         0.145879         2.188629
 H         2.634451         2.498941         1.951484
 H         4.113422         2.023500         1.217334
 H         2.406796         2.174962        -2.109631
 H         4.062718         1.758363        -1.312505
 H         2.354847        -0.176654        -2.017657
