19
Iteration:  2684charge 0 multiplicity 1
 C        -0.051101         0.334600         0.008528
 C         1.413963         0.138977         0.054964
 O         1.885142        -1.225271         0.113469
 C         3.103919        -0.469747         0.045933
 C         2.522869         0.501043         1.090506
 C         3.011534         1.916578         1.173492
 O         2.772427         2.612204        -0.150689
 C         3.095294         1.727085        -1.259514
 C         2.411798         0.448659        -1.082186
 H        -0.542372        -0.255539         0.797974
 H        -0.482085         1.229452         0.182305
 H        -0.392228        -0.037894        -0.957955
 H         4.013886        -0.977033         0.156746
 H         2.419813        -0.056524         2.062694
 H         2.257792         2.478956         1.852486
 H         4.077872         1.929242         1.434448
 H         2.805622         2.478406        -2.142944
 H         4.196477         1.499085        -1.244477
 H         2.271358        -0.088384        -2.020773
