19
Iteration:  2061
 C        -0.032846         0.378874        -0.041452
 C         1.381745         0.075036         0.003143
 O         1.862974        -1.331506         0.112216
 C         3.097884        -0.435599         0.055889
 C         2.502007         0.498228         1.088112
 C         2.959664         1.922392         1.171292
 O         2.895774         2.609377        -0.058213
 C         3.001010         1.811498        -1.269268
 C         2.468754         0.419440        -1.082183
 H        -0.582730        -0.171961         0.723009
 H        -0.032267         1.475968        -0.012727
 H        -0.499781         0.067595        -1.009314
 H         4.143051        -0.925363         0.253005
 H         2.333637         0.067438         2.074159
 H         2.442916         2.583399         1.866675
 H         3.966185         1.905368         1.708840
 H         2.454003         2.339501        -2.033164
 H         4.077777         1.768313        -1.633619
 H         2.267061        -0.045309        -1.999002
