19
Iteration:  2825
 C        -0.143389         0.428607         0.164946
 C         1.462338         0.156933        -0.037345
 O         1.850177        -1.302667         0.042592
 C         3.123946        -0.464727         0.106959
 C         2.513351         0.486203         1.092117
 C         2.969808         1.965098         1.110639
 O         2.693732         2.536295        -0.123990
 C         3.124551         1.795757        -1.258800
 C         2.589632         0.367175        -1.088436
 H        -0.548465         0.117071         1.188796
 H        -0.369538         1.436826         0.060038
 H        -0.556316        -0.053895        -0.789860
 H         4.234000        -0.814007         0.067279
 H         2.324314         0.099225         2.093118
 H         2.326275         2.527302         1.838701
 H         4.042551         1.944356         1.209753
 H         2.591616         2.166889        -2.101489
 H         4.253726         1.681655        -1.409027
 H         2.559684        -0.114817        -2.030941
