19
Iteration:  2208
 C        -0.081672         0.459026        -0.062003
 C         1.441215         0.121005        -0.041964
 O         1.877995        -1.304885         0.058358
 C         3.133512        -0.552838         0.178732
 C         2.454636         0.473821         1.116057
 C         3.072332         1.868066         1.134863
 O         2.766757         2.658044        -0.099737
 C         2.975015         1.847591        -1.203926
 C         2.590866         0.362848        -1.064852
 H        -0.625589         0.030480         0.856979
 H        -0.144542         1.493366         0.135021
 H        -0.573379         0.049410        -0.945620
 H         4.029036        -1.113077         0.306630
 H         2.073118         0.007620         2.050200
 H         2.652119         2.512071         2.066806
 H         4.171269         1.932213         1.213324
 H         2.122717         2.173079        -1.973796
 H         3.866734         2.090694        -1.823732
 H         2.333053        -0.229337        -1.999404
