19
Iteration:  1421charge 0 multiplicity 1
 C        -0.157401         0.423211         0.016800
 C         1.394163         0.160977         0.032192
 O         1.879618        -1.346554         0.129409
 C         3.140514        -0.508273        -0.054031
 C         2.582411         0.465206         1.046481
 C         2.946642         1.928110         1.180955
 O         2.767289         2.618322        -0.073017
 C         3.166587         1.834308        -1.208540
 C         2.484647         0.382808        -1.117227
 H        -0.520673         0.235091         1.103776
 H        -0.462496         1.481333        -0.187406
 H        -0.836323        -0.186178        -0.709777
 H         4.129895        -1.151411        -0.045965
 H         2.416050         0.039911         2.029841
 H         2.138908         2.422751         1.784846
 H         3.939849         2.071216         1.668539
 H         2.970498         2.468369        -2.095560
 H         4.244602         1.668916        -1.218948
 H         2.187785        -0.084509        -2.084998
