19
Iteration:  4709
 C         0.022907         0.441970         0.062548
 C         1.382594         0.083833         0.056486
 O         1.855664        -1.269727         0.120910
 C         3.125992        -0.448632         0.119674
 C         2.434096         0.470844         1.148264
 C         2.949314         1.904862         1.105542
 O         2.752816         2.595477        -0.218583
 C         3.119617         1.836905        -1.300608
 C         2.522458         0.319846        -1.101390
 H        -0.377196         0.155616         1.093174
 H         0.032804         1.514897        -0.100752
 H        -0.750322        -0.047586        -0.597512
 H         3.973901        -1.078354         0.263332
 H         2.136638        -0.027162         2.127205
 H         2.362868         2.538400         1.854789
 H         4.143118         2.127074         1.412480
 H         2.584675         2.304954        -2.198015
 H         4.238291         1.730336        -1.401409
 H         2.480230        -0.195350        -2.073783
