19
Iteration:  1430
 C        -0.054231         0.432941         0.051990
 C         1.423615         0.097573        -0.037002
 O         1.864419        -1.283255         0.089436
 C         3.130869        -0.572078        -0.020715
 C         2.535503         0.472601         1.082388
 C         2.920723         1.966234         1.176456
 O         2.794590         2.643132        -0.086704
 C         3.134801         1.782834        -1.177066
 C         2.417150         0.446200        -1.133951
 H        -0.492932         0.108912         1.120003
 H        -0.244616         1.463494        -0.145209
 H        -0.558309        -0.341438        -0.697050
 H         4.162705        -1.121285         0.003463
 H         2.289966        -0.019962         2.061216
 H         2.292926         2.425664         1.880766
 H         3.905613         2.080351         1.587350
 H         2.680734         2.278144        -2.035068
 H         4.242090         1.556340        -1.148793
 H         2.323270        -0.147845        -2.072388
