19
Iteration:  1015
 C        -0.131846         0.413080        -0.056239
 C         1.370339         0.159502         0.011267
 O         1.842306        -1.307092         0.050549
 C         3.101109        -0.480986         0.104670
 C         2.529389         0.434187         1.120840
 C         3.103652         1.909496         1.098727
 O         2.774318         2.653395        -0.063088
 C         3.040469         1.854768        -1.219275
 C         2.535345         0.381452        -1.017694
 H        -0.579590        -0.230442         0.802508
 H        -0.511138         1.390802        -0.078494
 H        -0.425361        -0.015407        -1.092672
 H         3.940583        -1.113939         0.097811
 H         2.412067        -0.059437         2.093678
 H         2.737057         2.428954         2.004533
 H         4.177934         1.865070         1.289654
 H         2.258395         2.068597        -1.946546
 H         4.183642         1.790842        -1.552228
 H         2.603662        -0.165729        -2.015491
