19
Iteration:   263charge 0 multiplicity 1
 C         0.011517         0.406632        -0.012893
 C         1.391545         0.145776         0.026697
 O         1.820309        -1.329914         0.105138
 C         3.074754        -0.534899         0.079185
 C         2.501441         0.425001         1.085743
 C         3.055882         1.868251         1.181563
 O         2.824832         2.663748        -0.075028
 C         2.988390         1.857116        -1.306289
 C         2.508306         0.435796        -1.080969
 H        -0.588605         0.013907         0.795083
 H        -0.224047         1.481013        -0.067360
 H        -0.554960         0.066115        -1.016018
 H         4.088783        -1.051445         0.105789
 H         2.443699        -0.121866         2.051991
 H         2.460393         2.513843         1.913125
 H         4.116696         2.035098         1.441185
 H         2.442697         2.457999        -2.076118
 H         4.052410         1.856697        -1.482025
 H         2.305604        -0.285932        -1.914603
