19
Iteration:  2926
 C        -0.189769         0.311690        -0.031903
 C         1.413834         0.131002         0.071401
 O         1.860669        -1.293807         0.109855
 C         3.186942        -0.484594         0.103631
 C         2.472112         0.481046         1.156127
 C         3.083661         1.928351         1.093093
 O         2.831778         2.671843        -0.114378
 C         2.980255         1.840236        -1.281304
 C         2.570034         0.359156        -1.082670
 H        -0.733816         0.050615         0.861282
 H        -0.266178         1.398888        -0.082241
 H        -0.770164        -0.027053        -0.899523
 H         4.075994        -1.067430         0.118230
 H         2.117007         0.127423         2.148444
 H         2.738331         2.614735         1.968132
 H         4.156145         1.769994         1.377933
 H         2.226205         2.236833        -2.039088
 H         3.972843         1.738365        -1.778446
 H         2.451360        -0.140204        -2.033327
