19
Iteration:  3310charge 0 multiplicity 1
 C        -0.078356         0.372518        -0.019929
 C         1.396821         0.121052         0.132025
 O         1.818861        -1.330568         0.237130
 C         3.097589        -0.497041         0.012290
 C         2.555807         0.507278         1.031414
 C         2.949597         1.887005         1.138729
 O         2.830301         2.670265        -0.129968
 C         3.097777         1.820806        -1.313432
 C         2.507526         0.372419        -1.077964
 H        -0.689656         0.198212         0.824074
 H        -0.273570         1.496225        -0.191124
 H        -0.444875        -0.211422        -0.789913
 H         4.187493        -0.857309        -0.001594
 H         2.471140         0.055909         2.022567
 H         2.204184         2.377278         1.771492
 H         4.070830         2.174310         1.575213
 H         2.453452         2.108703        -2.104608
 H         4.164442         1.862907        -1.716383
 H         2.395862        -0.098441        -2.028768
