19
Iteration:  1085
 C        -0.083674         0.485112         0.033560
 C         1.396988         0.080305         0.078312
 O         1.891811        -1.346509         0.040143
 C         3.060463        -0.520538        -0.054159
 C         2.620375         0.460305         1.061027
 C         2.862484         2.004842         1.198877
 O         2.827213         2.592663        -0.077757
 C         3.106200         1.772227        -1.176890
 C         2.455162         0.399350        -1.098799
 H        -0.623187         0.239405         0.830854
 H        -0.049017         1.596654        -0.295259
 H        -0.472879         0.003777        -0.790013
 H         4.083136        -0.825765        -0.117844
 H         2.527552         0.054086         2.109495
 H         2.238565         2.362146         1.998176
 H         3.847491         2.195867         1.626966
 H         2.689342         2.188790        -2.144988
 H         4.273031         1.683391        -1.145299
 H         2.212365        -0.069746        -2.066954
