19
Iteration:  2952
 C        -0.029115         0.317939         0.039509
 C         1.406106         0.147806        -0.039107
 O         1.823659        -1.355248         0.095609
 C         3.100898        -0.464310         0.137643
 C         2.478326         0.568508         1.056602
 C         3.083467         1.945829         1.073342
 O         2.738349         2.625016        -0.084035
 C         3.064695         1.804340        -1.206803
 C         2.505335         0.395075        -1.083018
 H        -0.469367         0.195589         1.002170
 H        -0.243526         1.369521        -0.269597
 H        -0.585171        -0.268293        -0.637002
 H         4.034791        -1.012707         0.413748
 H         2.314158         0.213258         2.095496
 H         2.891469         2.569497         1.928568
 H         4.100874         1.713890         1.256321
 H         2.353125         2.296906        -2.011602
 H         4.044930         1.621052        -1.649053
 H         2.492985        -0.045137        -2.144913
