19
Iteration:  4757
 C        -0.032704         0.341542         0.082583
 C         1.378619         0.072690        -0.001686
 O         1.820125        -1.324764         0.181433
 C         3.116607        -0.438087         0.097029
 C         2.477269         0.532200         1.103400
 C         2.919429         1.992800         1.108351
 O         2.870160         2.668765        -0.153930
 C         3.123537         1.752301        -1.349266
 C         2.470164         0.364103        -1.087074
 H        -0.615883        -0.304572         0.714559
 H        -0.219630         1.405669         0.177907
 H        -0.590632         0.232726        -0.821613
 H         4.070347        -1.021480         0.033488
 H         2.473628         0.070288         2.072709
 H         2.318613         2.586314         1.927017
 H         4.058083         2.131287         1.486093
 H         2.720991         2.254029        -2.206403
 H         4.255055         1.445568        -1.306041
 H         2.295866        -0.161080        -2.050536
