19
Iteration:  3935charge 0 multiplicity 1
 C         0.006014         0.330350        -0.138660
 C         1.356160         0.085654         0.162000
 O         1.854133        -1.235696         0.210765
 C         3.075176        -0.423422         0.058489
 C         2.521248         0.565500         1.117465
 C         3.091321         1.913007         1.118093
 O         2.795026         2.603954        -0.137736
 C         3.004433         1.753035        -1.288612
 C         2.426905         0.369905        -1.077861
 H        -0.651588         0.000489         0.718486
 H        -0.142275         1.413402        -0.271562
 H        -0.508896        -0.216920        -0.979632
 H         4.061554        -0.955628         0.141656
 H         2.362085         0.078938         2.198000
 H         2.734409         2.742050         1.960844
 H         4.264439         1.681995         1.279582
 H         2.610923         2.388016        -2.100337
 H         3.982637         1.600017        -1.538053
 H         2.368320        -0.198417        -2.075570
