19
Iteration:  3078charge 0 multiplicity 1
 C         0.011723         0.354595        -0.011418
 C         1.417953         0.139025         0.047725
 O         1.826545        -1.283087         0.155179
 C         3.060144        -0.519106         0.149843
 C         2.585698         0.525631         1.071639
 C         3.001476         1.949275         1.055224
 O         2.740571         2.591777        -0.111128
 C         3.019098         1.832242        -1.307456
 C         2.484126         0.394648        -1.046684
 H        -0.512028        -0.339050         0.720892
 H        -0.387354         1.456550         0.226095
 H        -0.300412         0.067868        -1.070856
 H         4.030056        -1.130108         0.148078
 H         2.233644         0.347156         2.120383
 H         2.627579         2.423890         2.003009
 H         4.122326         1.707883         1.126151
 H         2.681244         2.358230        -2.158719
 H         4.168674         1.709675        -1.417015
 H         2.540932        -0.103083        -1.999481
