19
Iteration:  1357charge 0 multiplicity 1
 C        -0.130807         0.467172        -0.020828
 C         1.394633         0.118055         0.010630
 O         1.843527        -1.292785         0.081377
 C         3.175450        -0.572071         0.101494
 C         2.455637         0.488391         1.082752
 C         3.066031         1.863290         1.109846
 O         2.770321         2.614021        -0.070656
 C         2.943936         1.914347        -1.267645
 C         2.710125         0.363570        -1.042139
 H        -0.561419         0.040382         0.810266
 H        -0.209094         1.536741         0.083265
 H        -0.611508         0.055692        -0.848002
 H         3.953222        -1.306136         0.215757
 H         2.107828         0.003809         1.983396
 H         2.596652         2.376309         2.025074
 H         4.160108         1.857524         1.312775
 H         2.150324         2.196416        -1.942566
 H         3.973700         2.041976        -1.576062
 H         2.488520        -0.102981        -2.017852
