19
Iteration:   475
 C        -0.030552         0.432397        -0.081813
 C         1.410101         0.096236        -0.000229
 O         1.847728        -1.291195         0.103019
 C         3.162731        -0.431739         0.066123
 C         2.520590         0.481408         1.125917
 C         3.127255         1.912651         1.124872
 O         2.760337         2.579921        -0.041093
 C         2.949881         1.787847        -1.224675
 C         2.421716         0.410350        -1.041791
 H        -0.703650        -0.203813         0.526256
 H        -0.183800         1.563003         0.157661
 H        -0.314659         0.334928        -1.122769
 H         4.054703        -1.042406         0.009382
 H         2.181520        -0.029008         2.040420
 H         2.845193         2.383103         2.035031
 H         4.198457         1.874210         1.163075
 H         2.478897         2.374440        -2.084229
 H         4.023991         1.621252        -1.553288
 H         2.194402        -0.212790        -1.870293
