19
Iteration:   603
 C        -0.016565         0.393174         0.010565
 C         1.390719         0.168495        -0.038980
 O         1.854053        -1.215917         0.059418
 C         3.091806        -0.527396         0.131650
 C         2.479234         0.430047         1.122865
 C         3.034404         1.903815         1.128137
 O         2.758718         2.576365        -0.069378
 C         3.014364         1.805128        -1.266285
 C         2.571747         0.420643        -1.084133
 H        -0.441248         0.048609         0.999090
 H        -0.279095         1.351974        -0.062345
 H        -0.693428        -0.180733        -0.725502
 H         3.994265        -1.107313         0.165932
 H         2.183720         0.028726         2.054650
 H         2.701464         2.549057         1.912883
 H         4.125630         1.834969         1.156608
 H         2.394541         2.246848        -1.927418
 H         4.088592         1.986960        -1.522463
 H         2.578408        -0.099720        -2.031144
