19
Iteration:   879
 C         0.038096         0.376707         0.007439
 C         1.466212         0.144362         0.090709
 O         1.835997        -1.257299         0.089985
 C         3.080626        -0.523870        -0.099249
 C         2.519408         0.511871         1.109637
 C         2.957836         1.893998         1.115559
 O         2.768337         2.591258        -0.081062
 C         3.066445         1.754168        -1.184517
 C         2.407442         0.426218        -1.072927
 H        -0.395602         0.046213         0.930760
 H        -0.196334         1.568757        -0.168872
 H        -0.320137        -0.086011        -0.907901
 H         4.129062        -1.079840         0.075711
 H         2.455595        -0.011998         2.103973
 H         2.315666         2.487943         1.830457
 H         3.961221         2.219821         1.455645
 H         2.958836         2.286280        -2.093266
 H         4.154788         1.672638        -0.958875
 H         2.076932         0.100582        -2.104175
