19
Iteration:   350
 C        -0.045727         0.471414        -0.021396
 C         1.480637         0.149152         0.021633
 O         1.823134        -1.313750         0.089870
 C         3.098380        -0.591287        -0.018033
 C         2.658625         0.425459         1.095630
 C         2.975906         1.988890         1.173230
 O         2.772236         2.685724        -0.053420
 C         3.034146         1.806801        -1.220280
 C         2.414026         0.350948        -1.083395
 H        -0.593549         0.081995         0.863680
 H        -0.135853         1.592387        -0.103007
 H        -0.529307        -0.213380        -0.953530
 H         3.993133        -1.272636        -0.201890
 H         2.559261        -0.105168         2.096989
 H         2.295594         2.454026         1.990180
 H         3.958695         2.068988         1.681747
 H         2.547238         2.274163        -2.082316
 H         4.170630         1.612960        -1.260263
 H         2.064052        -0.105936        -2.075550
