19
Iteration:  2318
 C        -0.114285         0.504682         0.052406
 C         1.382910         0.095436         0.040195
 O         1.909898        -1.315680         0.043335
 C         3.170234        -0.458081         0.117048
 C         2.456670         0.475489         1.054867
 C         2.960572         1.857410         1.152561
 O         2.776736         2.632456        -0.069275
 C         3.037609         1.777861        -1.325331
 C         2.625064         0.355156        -1.070785
 H        -0.586525         0.040974         1.007358
 H        -0.004518         1.582527        -0.163176
 H        -0.785711         0.250644        -0.794802
 H         4.153580        -0.909683         0.183361
 H         2.211574        -0.027968         2.004629
 H         2.156529         2.329801         1.918463
 H         3.909620         2.009353         1.600388
 H         2.456547         2.406104        -2.183420
 H         4.084142         1.811753        -1.524998
 H         2.444434        -0.308285        -1.978125
