19
Iteration:  1106charge 0 multiplicity 1
 C         0.022759         0.448644         0.005080
 C         1.460331         0.138740         0.032319
 O         1.825420        -1.235986         0.102998
 C         3.145919        -0.516162        -0.023417
 C         2.503127         0.416873         1.087495
 C         2.969938         1.879506         1.159775
 O         2.746347         2.616188        -0.083664
 C         3.088241         1.823187        -1.225192
 C         2.434384         0.403249        -1.061887
 H        -0.402446        -0.104229         0.784056
 H        -0.278661         1.572001        -0.176726
 H        -0.301086        -0.069823        -0.886504
 H         3.963602        -1.177368        -0.081351
 H         2.289262        -0.091170         2.090841
 H         2.291486         2.325966         1.940731
 H         3.908274         2.093216         1.657984
 H         2.600777         2.432887        -2.058556
 H         4.309225         1.571238        -1.371733
 H         2.220367        -0.208471        -1.990181
