19
Iteration:  2667
 C        -0.059739         0.307983         0.047708
 C         1.424322         0.168147         0.019185
 O         1.819198        -1.306338         0.081928
 C         3.114927        -0.434699        -0.036620
 C         2.550310         0.573258         1.091439
 C         2.968731         2.019874         1.135441
 O         2.763906         2.601261        -0.070642
 C         3.137250         1.742182        -1.165051
 C         2.445747         0.313233        -1.114363
 H        -0.486595        -0.310666         0.864376
 H        -0.151505         1.489150         0.087905
 H        -0.536386         0.012079        -0.904111
 H         4.171330        -1.016640        -0.113124
 H         2.287248         0.096982         2.023575
 H         2.489850         2.666377         1.807471
 H         4.040400         2.106344         1.470792
 H         2.779098         2.226674        -2.026447
 H         4.211070         1.483194        -1.170078
 H         2.130526        -0.198813        -2.046540
