19
Iteration:  2246charge 0 multiplicity 1
 C        -0.121562         0.286178        -0.074856
 C         1.357090         0.186598         0.063735
 O         1.892331        -1.259345         0.162418
 C         3.085912        -0.496468        -0.006205
 C         2.529331         0.429028         1.156107
 C         3.063168         1.902282         1.137121
 O         2.756662         2.621060        -0.096703
 C         3.165602         1.843078        -1.251454
 C         2.442888         0.402794        -1.072629
 H        -0.678702        -0.093736         0.715676
 H        -0.134804         1.409726        -0.267171
 H        -0.636122         0.048786        -0.994410
 H         4.131497        -0.970329        -0.012513
 H         2.187986         0.035540         2.110525
 H         2.449126         2.384185         1.805611
 H         4.198057         2.093958         1.482241
 H         2.741622         2.378636        -2.013011
 H         4.281760         1.725960        -1.343086
 H         2.053226         0.108125        -2.045134
