19
Iteration:  2084charge 0 multiplicity 1
 C        -0.113977         0.371285         0.090528
 C         1.368770         0.165644        -0.056022
 O         1.886541        -1.278463         0.044871
 C         3.119565        -0.456090         0.081129
 C         2.418205         0.496817         1.116168
 C         2.942422         1.860840         1.142962
 O         2.835147         2.613199        -0.096878
 C         3.071990         1.833463        -1.254106
 C         2.601419         0.370530        -1.088805
 H        -0.356195        -0.169763         1.020811
 H        -0.334104         1.404877         0.000320
 H        -0.718348        -0.161039        -0.693262
 H         4.108053        -1.015665         0.122725
 H         2.069192         0.109004         2.088921
 H         2.652943         2.613682         1.893534
 H         4.031080         1.738067         1.472092
 H         2.654688         2.324166        -2.158380
 H         4.180729         1.799133        -1.399990
 H         2.510500        -0.153869        -1.993117
