19
Iteration:  1950charge 0 multiplicity 1
 C         0.073055         0.369680        -0.007386
 C         1.443947         0.170391         0.061753
 O         1.804160        -1.246697         0.123269
 C         3.069821        -0.484957        -0.053685
 C         2.484303         0.462277         1.094496
 C         2.935917         1.900797         1.118858
 O         2.675819         2.611538        -0.102698
 C         3.153638         1.798792        -1.180185
 C         2.487667         0.386215        -1.093839
 H        -0.413451         0.266516         0.924421
 H        -0.199530         1.462289        -0.127022
 H        -0.311046        -0.387940        -0.641788
 H         4.041373        -1.137083         0.080591
 H         2.523888        -0.040936         2.035562
 H         2.525947         2.544594         1.885325
 H         4.075623         1.867891         1.398254
 H         3.044325         2.270701        -2.109049
 H         4.252905         1.684129        -1.126782
 H         2.235916        -0.051206        -2.023496
