19
Iteration:  3694
 C        -0.038039         0.427216         0.060902
 C         1.416705         0.092431        -0.006614
 O         1.902377        -1.262616         0.107561
 C         3.122892        -0.517710         0.149233
 C         2.483709         0.480417         1.122925
 C         2.950791         1.944069         1.132123
 O         2.795527         2.621003        -0.186988
 C         3.044410         1.757330        -1.287541
 C         2.477063         0.364349        -1.063363
 H        -0.370757         0.243439         1.146987
 H        -0.117670         1.487932        -0.102927
 H        -0.632068        -0.145646        -0.780847
 H         4.222572        -0.832151         0.172150
 H         2.136495         0.248754         2.151000
 H         2.409094         2.597765         1.752872
 H         3.990863         1.858406         1.200318
 H         2.641261         2.310973        -2.158111
 H         4.107005         1.588517        -1.465658
 H         2.203761        -0.120103        -2.030255
