19
Iteration:  2980charge 0 multiplicity 1
 C        -0.081928         0.423681        -0.011134
 C         1.412650         0.194729         0.002488
 O         1.890427        -1.281701         0.131730
 C         3.105768        -0.476852         0.072803
 C         2.617126         0.437795         1.136662
 C         2.991392         1.919459         1.131977
 O         2.667510         2.592855        -0.130416
 C         3.107808         1.778577        -1.273218
 C         2.466464         0.399547        -1.051207
 H        -0.559289         0.303137         1.004310
 H        -0.394360         1.446719        -0.365524
 H        -0.662873        -0.313234        -0.665366
 H         3.958632        -1.126051         0.060638
 H         2.691995         0.003881         2.148490
 H         2.412680         2.549459         1.920049
 H         4.110142         1.944673         1.438671
 H         2.729380         2.232717        -2.160463
 H         4.117733         1.557265        -1.628837
 H         2.480863        -0.146107        -1.964873
