19
Iteration:    59charge 0 multiplicity 1
 C        -0.116200         0.499362         0.077023
 C         1.382114         0.042342         0.020472
 O         1.851007        -1.436906         0.005793
 C         3.105858        -0.470828         0.068106
 C         2.496772         0.497413         1.028395
 C         2.996219         1.925243         1.075749
 O         2.822141         2.771504        -0.035837
 C         3.084890         1.819790        -1.189345
 C         2.516264         0.322939        -1.050135
 H        -0.515383         0.321890         1.073577
 H        -0.235429         1.556922        -0.068371
 H        -0.610808        -0.289993        -0.742185
 H         4.236990        -0.886428         0.129881
 H         2.177991         0.096191         2.157491
 H         2.629051         2.304990         2.071217
 H         4.102712         1.680933         1.136776
 H         2.562269         2.224767        -2.132921
 H         4.150632         1.719642        -1.438416
 H         2.385575        -0.163927        -2.163067
