19
Iteration:   518charge 0 multiplicity 1
 C        -0.053836         0.474400         0.087857
 C         1.419622         0.119507        -0.063918
 O         1.833720        -1.272515         0.005840
 C         3.154991        -0.559940         0.122602
 C         2.454176         0.447612         1.087216
 C         2.984805         1.932051         1.147078
 O         2.777793         2.605895        -0.082884
 C         3.009065         1.827299        -1.265466
 C         2.585030         0.352757        -1.059248
 H        -0.223141         0.097015         1.113120
 H        -0.003404         1.547040         0.159695
 H        -0.689930         0.057043        -0.665331
 H         4.130636        -1.046042         0.106586
 H         2.213317         0.089969         2.096151
 H         2.388404         2.507119         1.848725
 H         4.033913         1.858080         1.522963
 H         2.349655         2.207789        -2.118380
 H         4.048998         1.946422        -1.620897
 H         2.565647        -0.172763        -1.980712
