19
Iteration:  4413charge 0 multiplicity 1
 C         0.006214         0.429437         0.052390
 C         1.431397         0.154549         0.051639
 O         1.852810        -1.310084         0.089811
 C         3.101112        -0.550991         0.108989
 C         2.469129         0.559408         1.086420
 C         2.992445         1.954292         1.083537
 O         2.756525         2.625125        -0.172353
 C         3.047882         1.792543        -1.265444
 C         2.577577         0.311343        -1.059446
 H        -0.268617         0.078103         1.117370
 H        -0.137912         1.562834         0.131695
 H        -0.633407         0.040768        -0.866926
 H         3.954228        -1.204242         0.333540
 H         2.063510         0.095503         2.025371
 H         2.359772         2.521686         1.896204
 H         3.980691         1.979359         1.383330
 H         2.268980         2.066113        -2.025971
 H         4.166087         1.831928        -1.520135
 H         2.238535        -0.267267        -1.948720
