19
Iteration:  4130charge 0 multiplicity 1
 C        -0.089618         0.391337        -0.074031
 C         1.337473         0.132900         0.046530
 O         1.890055        -1.313424         0.170123
 C         3.079313        -0.446308         0.142943
 C         2.564925         0.546687         1.071255
 C         3.114813         1.915437         1.209829
 O         2.848093         2.634443        -0.179052
 C         2.934470         1.741700        -1.291304
 C         2.506924         0.359484        -1.052036
 H        -0.840854        -0.012146         0.789187
 H        -0.296940         1.422349        -0.387201
 H        -0.346625        -0.093136        -1.188949
 H         4.010880        -0.913220         0.201221
 H         2.453348         0.092911         2.170532
 H         2.590183         2.528814         1.953904
 H         4.102867         2.121330         1.607057
 H         2.263990         2.122051        -2.065972
 H         3.930303         1.696164        -1.718149
 H         2.194570        -0.243834        -1.945976
