19
Iteration:  4616
 C        -0.123120         0.450298        -0.005880
 C         1.425795         0.152957         0.020696
 O         1.971227        -1.347885         0.136922
 C         3.092886        -0.562467         0.198847
 C         2.414806         0.538134         1.074040
 C         3.084899         1.952403         1.070344
 O         2.745754         2.598057        -0.169424
 C         2.999261         1.811435        -1.251372
 C         2.510671         0.390742        -1.083067
 H        -0.463162        -0.136346         0.865901
 H        -0.045593         1.664170        -0.016157
 H        -0.714211         0.120252        -0.873556
 H         3.928047        -1.314420         0.423665
 H         2.300520         0.247965         2.109028
 H         2.684740         2.555494         1.889349
 H         4.308264         1.873172         1.323735
 H         2.398840         2.273535        -2.040483
 H         4.010939         1.762167        -1.595181
 H         2.502968        -0.299600        -1.944017
