19
Iteration:  1522charge 0 multiplicity 1
 C        -0.094648         0.450686        -0.169035
 C         1.351614         0.143588         0.111581
 O         1.869367        -1.281570         0.124037
 C         3.131459        -0.583811         0.019581
 C         2.586375         0.464602         1.111747
 C         3.090905         1.887296         1.085244
 O         2.690196         2.633999        -0.036685
 C         3.027206         1.869593        -1.229444
 C         2.540640         0.345664        -0.999540
 H        -0.689276        -0.089692         0.508834
 H        -0.471756         1.620511         0.087404
 H        -0.378719         0.087247        -1.134431
 H         4.091387        -1.127599        -0.196397
 H         2.690243         0.126173         2.132707
 H         2.650715         2.357774         2.079964
 H         4.107935         1.911227         1.318879
 H         2.326769         2.321755        -1.986358
 H         4.068875         1.877014        -1.471698
 H         2.292873        -0.103655        -1.985269
