19
Iteration:  2846
 C        -0.026139         0.432858         0.102230
 C         1.459700         0.068308         0.029801
 O         1.891023        -1.281031         0.043424
 C         3.116890        -0.491440         0.130868
 C         2.424247         0.489042         1.065128
 C         2.934470         1.952837         1.170760
 O         2.772451         2.639851        -0.178013
 C         3.054477         1.790768        -1.293757
 C         2.549942         0.385376        -1.063015
 H        -0.251489        -0.067265         1.125228
 H        -0.156622         1.481117         0.341083
 H        -0.647211        -0.006408        -0.777239
 H         3.999206        -1.243047         0.130770
 H         2.171912        -0.121001         1.919334
 H         2.352187         2.654811         1.739028
 H         4.006660         1.756232         1.462078
 H         2.610962         2.323427        -2.065179
 H         4.197246         1.672163        -1.611564
 H         2.186263        -0.168080        -1.911732
