19
Iteration:  3840
 C        -0.107119         0.551066         0.021990
 C         1.428602         0.091876         0.111045
 O         1.836834        -1.332118         0.133562
 C         3.181027        -0.498147         0.067761
 C         2.570703         0.512638         1.065267
 C         2.919432         1.993688         1.102120
 O         2.701430         2.561208        -0.137144
 C         3.107627         1.701240        -1.302585
 C         2.544836         0.339417        -1.068957
 H        -0.663733         0.027689         0.800172
 H        -0.230180         1.743011         0.105176
 H        -0.672096         0.180472        -0.826544
 H         4.220548        -0.971970        -0.009719
 H         2.517313         0.158046         2.044008
 H         2.205752         2.385983         1.791701
 H         4.050126         2.247230         1.555558
 H         2.830723         2.251343        -2.243960
 H         4.236695         1.866196        -1.309430
 H         2.394255        -0.309770        -1.902366
