19
Iteration:  4800charge 0 multiplicity 1
 C        -0.084236         0.370124        -0.087996
 C         1.405052         0.118736         0.011371
 O         1.804762        -1.298598         0.132666
 C         3.163235        -0.443950         0.142785
 C         2.555112         0.565966         1.147931
 C         3.122376         1.989189         1.129929
 O         2.798603         2.612255        -0.125801
 C         2.988228         1.743669        -1.304818
 C         2.463636         0.291400        -1.062379
 H        -0.607004        -0.156888         0.741822
 H        -0.324091         1.423894         0.103105
 H        -0.569985        -0.057682        -0.974337
 H         4.155903        -0.931985         0.103261
 H         2.114921         0.248040         2.090776
 H         2.561600         2.719219         1.881378
 H         4.232020         2.082610         1.549698
 H         2.284331         2.284866        -1.951136
 H         4.072749         1.809563        -1.647112
 H         2.313383        -0.510803        -1.822527
