19
Iteration:  2166charge 0 multiplicity 1
 C        -0.007484         0.567854        -0.099047
 C         1.388217         0.095228         0.007126
 O         1.902508        -1.288281         0.071677
 C         3.198595        -0.497762         0.036818
 C         2.502727         0.460037         1.104995
 C         2.973962         1.942661         1.200335
 O         2.741745         2.620442        -0.042118
 C         2.935701         1.716861        -1.226589
 C         2.544629         0.297865        -1.044272
 H        -0.534527         0.296119         0.767328
 H        -0.121100         1.659973        -0.036834
 H        -0.368820         0.081117        -0.958253
 H         4.025728        -1.054365         0.257421
 H         2.443991        -0.087603         2.055018
 H         2.492857         2.676204         1.941790
 H         4.115337         1.796181         1.325131
 H         2.201406         2.096304        -1.967625
 H         3.955741         1.898964        -1.600872
 H         2.292375        -0.121499        -2.098735
