19
Iteration:  3893
 C        -0.063517         0.440313         0.041333
 C         1.434629         0.062499         0.006771
 O         1.820376        -1.295299         0.155309
 C         3.097649        -0.524230         0.111436
 C         2.440475         0.515445         1.077040
 C         3.023642         1.986928         1.098109
 O         2.767739         2.644562        -0.140882
 C         3.000445         1.779610        -1.286808
 C         2.629274         0.330272        -1.072888
 H        -0.498656         0.194032         1.036761
 H        -0.108261         1.523196        -0.291814
 H        -0.586718        -0.167429        -0.750738
 H         3.969424        -1.220648         0.322647
 H         2.472965         0.090834         2.074310
 H         2.641141         2.563013         1.905476
 H         4.043399         2.021589         1.337589
 H         2.453821         2.201309        -2.174290
 H         4.160276         1.863560        -1.439864
 H         2.533926        -0.195947        -2.043383
