19
Iteration:  2492charge 0 multiplicity 1
 C        -0.182301         0.412638         0.061176
 C         1.359019         0.085045        -0.015604
 O         1.883478        -1.354923         0.011528
 C         3.192693        -0.506471         0.017045
 C         2.490294         0.480764         1.083017
 C         2.920927         2.005826         1.178699
 O         2.874563         2.682103        -0.100607
 C         3.064492         1.771375        -1.212276
 C         2.550803         0.386257        -1.019527
 H        -0.568654        -0.044281         0.982182
 H        -0.404964         1.465538         0.249129
 H        -0.579824        -0.074775        -0.811336
 H         4.108674        -1.198149        -0.114838
 H         2.379911         0.128912         2.105600
 H         2.300849         2.524979         1.840906
 H         4.010019         2.195268         1.411971
 H         2.613108         2.158226        -2.092794
 H         4.149003         1.781765        -1.464913
 H         2.361934        -0.244871        -1.886822
