19
Iteration:  4036charge 0 multiplicity 1
 C        -0.002522         0.500744         0.053614
 C         1.498750         0.098724         0.058003
 O         1.808722        -1.404942         0.189944
 C         3.130419        -0.516567         0.027233
 C         2.579314         0.537526         1.093987
 C         2.904320         1.984739         1.083107
 O         2.710706         2.647774        -0.202476
 C         3.105626         1.764440        -1.192713
 C         2.439346         0.300874        -1.090348
 H        -0.613694         0.177427         0.827670
 H        -0.217262         1.613243        -0.152107
 H        -0.389110         0.171420        -0.854666
 H         4.142463        -1.115493         0.003573
 H         2.426803         0.055324         1.991297
 H         2.528731         2.622555         1.907943
 H         3.915639         2.195057         1.352226
 H         2.786807         2.254041        -2.135219
 H         4.259892         1.739067        -1.152396
 H         2.227217        -0.098760        -2.073535
