19
Iteration:  3708charge 0 multiplicity 1
 C         0.007879         0.412629        -0.018239
 C         1.424825         0.153352         0.049683
 O         1.879371        -1.338315         0.168078
 C         3.118725        -0.433553         0.064588
 C         2.458299         0.541753         1.121149
 C         3.036597         1.922458         1.145787
 O         2.807942         2.599335        -0.175811
 C         3.004830         1.761067        -1.313680
 C         2.446612         0.401484        -1.030480
 H        -0.492942         0.196674         0.991014
 H        -0.243171         1.461623        -0.308304
 H        -0.570904        -0.308808        -0.718868
 H         3.981295        -1.247270        -0.081398
 H         2.304496         0.017185         2.027065
 H         2.292800         2.452860         1.805916
 H         3.930811         2.082039         1.695887
 H         2.525397         2.263282        -2.228707
 H         4.126000         1.673245        -1.495411
 H         2.425434        -0.322735        -1.880850
