19
Iteration:  1937charge 0 multiplicity 1
 C        -0.111838         0.450984         0.026736
 C         1.450226         0.184231         0.040570
 O         1.833788        -1.311422         0.123285
 C         3.113896        -0.525789         0.021500
 C         2.627474         0.496093         1.050312
 C         2.961929         1.957584         1.148731
 O         2.682080         2.563584        -0.080948
 C         3.148298         1.769353        -1.158879
 C         2.487072         0.392603        -1.154507
 H        -0.542929         0.080993         0.931971
 H        -0.386765         1.435847        -0.486643
 H        -0.406005        -0.138809        -0.831019
 H         4.186467        -1.114871        -0.186475
 H         2.333575         0.098221         2.009656
 H         2.233471         2.309768         1.810897
 H         4.075718         2.238743         1.420357
 H         2.880300         2.392737        -1.973326
 H         4.247031         1.648974        -1.037993
 H         2.243327        -0.136194        -2.117463
