19
Iteration:  3362
 C        -0.119080         0.422371         0.089626
 C         1.407206         0.114327         0.027981
 O         1.910743        -1.270363         0.070251
 C         3.147936        -0.436973         0.141311
 C         2.408373         0.525144         1.107233
 C         2.987967         1.905859         1.047127
 O         2.799243         2.584635        -0.122801
 C         3.054191         1.795534        -1.263649
 C         2.549299         0.319940        -1.091764
 H        -0.562296         0.452521         1.097515
 H        -0.444731         1.424020        -0.374838
 H        -0.649673        -0.326531        -0.483584
 H         4.215627        -0.950363         0.204548
 H         2.297620         0.056099         2.121599
 H         2.566968         2.610131         1.762180
 H         4.064459         1.759793         1.229306
 H         2.622195         2.312313        -2.112820
 H         4.133590         1.737119        -1.435683
 H         2.412874        -0.305916        -1.955891
