19
Iteration:   988
 C         0.018395         0.416097        -0.183024
 C         1.408450         0.102201         0.046476
 O         1.870766        -1.308678         0.195494
 C         3.102159        -0.465079         0.015270
 C         2.512250         0.477822         1.126076
 C         3.104237         1.932135         1.145537
 O         2.749648         2.608664        -0.017786
 C         3.040721         1.870535        -1.193606
 C         2.298602         0.368659        -1.096476
 H        -0.630405        -0.144726         0.450278
 H        -0.197883         1.578189        -0.125065
 H        -0.187723         0.116627        -1.169186
 H         4.082531        -1.163738         0.034740
 H         2.426206        -0.096906         2.079890
 H         2.994666         2.498876         2.071105
 H         4.196910         1.709922         1.107860
 H         2.545085         2.249838        -2.135524
 H         4.083148         1.687451        -1.514313
 H         2.182934        -0.108863        -2.047656
