19
Iteration:   407charge 0 multiplicity 1
 C        -0.098062         0.513299         0.132872
 C         1.338202         0.062402        -0.009076
 O         1.967403        -1.369261        -0.023515
 C         3.119262        -0.450488         0.065515
 C         2.408981         0.522114         1.111337
 C         3.035980         1.882375         1.126882
 O         2.770047         2.576083        -0.079623
 C         3.082221         1.778429        -1.207185
 C         2.530830         0.419357        -1.097996
 H        -0.548327         0.467283         1.157420
 H        -0.197200         1.493742        -0.168843
 H        -0.891002         0.032873        -0.597075
 H         4.116360        -0.941445        -0.000737
 H         2.162476         0.099586         2.070695
 H         2.574165         2.583533         1.860737
 H         4.071487         1.650404         1.387733
 H         2.544430         2.260661        -2.037115
 H         4.199937         1.870727        -1.496775
 H         2.408546        -0.011211        -2.089097
