19
Iteration:   370charge 0 multiplicity 1
 C        -0.008954         0.468942         0.108272
 C         1.502605         0.108134         0.045111
 O         1.784425        -1.286220         0.040974
 C         3.086124        -0.548867        -0.053103
 C         2.484560         0.484124         1.064712
 C         2.930033         1.925822         1.185671
 O         2.783002         2.576852        -0.088034
 C         3.063971         1.810408        -1.212373
 C         2.555506         0.385954        -1.107737
 H        -0.368179         0.262244         1.094272
 H         0.036259         1.577794        -0.198350
 H        -0.438112        -0.264685        -0.571449
 H         4.055182        -1.076357        -0.056746
 H         2.405450         0.189501         2.134850
 H         2.228960         2.420328         1.932787
 H         3.926959         2.157445         1.652482
 H         2.374692         2.208652        -1.972563
 H         4.151693         1.829283        -1.570036
 H         2.426115        -0.020535        -2.154596
