19
Iteration:  1257charge 0 multiplicity 1
 C        -0.045241         0.432965         0.118770
 C         1.358985         0.159999        -0.086894
 O         1.842445        -1.308664        -0.075232
 C         3.105508        -0.493113         0.057945
 C         2.430942         0.534581         1.108400
 C         3.063049         1.971930         1.191057
 O         2.728054         2.597120        -0.082648
 C         3.070410         1.750494        -1.185004
 C         2.584839         0.344119        -1.057904
 H        -0.199636         0.184167         1.187163
 H        -0.311717         1.446908         0.018595
 H        -0.648573        -0.276859        -0.513143
 H         4.137752        -0.835115         0.182665
 H         2.248178        -0.082032         2.011751
 H         2.310994         2.549807         1.866094
 H         4.034822         1.883581         1.574124
 H         2.809558         2.183953        -2.182421
 H         4.262113         1.614018        -1.367657
 H         2.647209        -0.142156        -2.107543
