19
Iteration:  2298charge 0 multiplicity 1
 C        -0.045132         0.449142         0.100815
 C         1.388579         0.138945        -0.067660
 O         1.910306        -1.322023         0.056262
 C         3.111699        -0.479985         0.072767
 C         2.422442         0.481412         1.105688
 C         2.858673         1.901325         1.150627
 O         2.826956         2.574694        -0.135533
 C         3.101215         1.825046        -1.239081
 C         2.587411         0.390087        -1.049659
 H        -0.299446         0.058428         1.067043
 H        -0.345201         1.551835        -0.026297
 H        -0.681233        -0.150598        -0.534437
 H         3.965304        -1.046391         0.093695
 H         2.212769         0.057337         2.077065
 H         2.367373         2.574752         1.981274
 H         3.859507         1.869882         1.529747
 H         2.547032         2.383895        -2.101287
 H         4.141296         1.771287        -1.682391
 H         2.587401        -0.035650        -2.114204
