19
Iteration:  1546charge 0 multiplicity 1
 C        -0.018404         0.421872        -0.028421
 C         1.411207         0.161588        -0.034050
 O         1.861820        -1.274681         0.084259
 C         3.129296        -0.489540         0.069442
 C         2.471081         0.466512         1.135437
 C         3.074296         1.881368         1.171092
 O         2.700834         2.551375        -0.078284
 C         2.999396         1.836470        -1.232837
 C         2.539718         0.383829        -1.123469
 H        -0.521184         0.128704         0.920863
 H        -0.148865         1.616641         0.024492
 H        -0.570058        -0.047517        -0.838012
 H         4.102520        -0.925721         0.211601
 H         2.250344        -0.026719         2.113268
 H         2.625728         2.464666         2.068347
 H         4.140282         1.944753         1.425352
 H         2.543215         2.404404        -2.133460
 H         4.080457         1.684867        -1.340956
 H         2.458787        -0.067833        -2.128554
