19
Iteration:   680
 C        -0.082189         0.444944        -0.035318
 C         1.403510         0.140321         0.019184
 O         1.884904        -1.260679         0.102215
 C         3.091746        -0.510198        -0.027250
 C         2.601872         0.469331         1.140415
 C         3.017195         1.886187         1.226503
 O         2.748547         2.579537        -0.113691
 C         2.986335         1.794958        -1.218793
 C         2.551358         0.384726        -1.082280
 H        -0.777525        -0.006909         0.742218
 H        -0.301444         1.448943         0.070539
 H        -0.579258         0.157331        -1.070482
 H         4.039462        -1.036434         0.021354
 H         2.393520         0.021790         2.075318
 H         2.414530         2.569074         1.788668
 H         4.057524         1.996205         1.543163
 H         2.664839         2.252996        -2.072431
 H         4.135843         1.853733        -1.307035
 H         2.228017        -0.132139        -1.969110
