19
Iteration:  1705
 C        -0.100033         0.439091        -0.091245
 C         1.393050         0.123752        -0.011387
 O         1.833526        -1.259585         0.155806
 C         3.181774        -0.495280         0.042407
 C         2.538465         0.414379         1.143044
 C         3.054127         1.869057         1.161189
 O         2.705339         2.631033        -0.070779
 C         3.005646         1.843186        -1.260420
 C         2.565406         0.364910        -1.042704
 H        -0.721884        -0.174899         0.644712
 H         0.038830         1.600870         0.011229
 H        -0.555638         0.339341        -1.118335
 H         4.147193        -1.149646         0.014496
 H         2.443230        -0.180784         2.048888
 H         2.776712         2.527738         1.912597
 H         4.154055         1.876047         1.204898
 H         2.313371         2.179361        -1.992640
 H         4.034368         2.029416        -1.451472
 H         2.329143        -0.147852        -2.011888
