19
Iteration:  2129
 C        -0.015071         0.415782        -0.042879
 C         1.460977         0.150285         0.073278
 O         1.831735        -1.269917         0.155442
 C         3.119833        -0.528573        -0.000812
 C         2.482340         0.434615         1.081150
 C         2.922048         1.892597         1.088366
 O         2.699077         2.626942        -0.096160
 C         3.139300         1.792474        -1.191400
 C         2.494707         0.462126        -1.070841
 H        -0.416552        -0.011200         0.927750
 H        -0.200221         1.394554        -0.312675
 H        -0.543175        -0.140196        -0.851078
 H         4.070231        -1.127916         0.054705
 H         2.626395        -0.147673         2.018737
 H         2.561950         2.462335         2.037626
 H         4.070309         1.906622         1.240729
 H         2.803536         2.366801        -2.124858
 H         4.246746         1.617339        -1.228473
 H         2.276739         0.090381        -2.043399
