19
Iteration:  2977charge 0 multiplicity 1
 C        -0.064302         0.428214        -0.001195
 C         1.389765         0.175595        -0.001695
 O         1.892728        -1.254890         0.133729
 C         3.099599        -0.478402         0.041783
 C         2.578502         0.445842         1.160274
 C         3.012231         1.917279         1.129804
 O         2.668377         2.600219        -0.130094
 C         3.100050         1.793025        -1.286339
 C         2.490842         0.379072        -1.042285
 H        -0.548405         0.246504         1.041516
 H        -0.372038         1.373185        -0.380965
 H        -0.608644        -0.377445        -0.673925
 H         4.027923        -1.163537         0.026421
 H         2.600855         0.005816         2.149277
 H         2.554981         2.511975         1.837881
 H         4.019991         1.900775         1.467143
 H         2.716954         2.282380        -2.130506
 H         4.152929         1.553405        -1.544861
 H         2.440136        -0.228714        -1.946096
