19
Iteration:   589charge 0 multiplicity 1
 C        -0.057585         0.407310         0.020159
 C         1.483075         0.135813         0.002045
 O         1.837874        -1.343295         0.045621
 C         3.123617        -0.481372         0.009227
 C         2.437123         0.552852         1.114499
 C         3.069812         1.888151         1.162869
 O         2.719434         2.638218        -0.084817
 C         3.055101         1.826103        -1.211084
 C         2.492408         0.349248        -1.058431
 H        -0.345761         0.233931         1.085580
 H        -0.201990         1.553249        -0.221660
 H        -0.502043        -0.262628        -0.808644
 H         4.046390        -1.058364         0.052814
 H         2.230467         0.119947         2.122757
 H         2.566326         2.473266         1.966059
 H         4.135787         1.855800         1.395815
 H         2.850759         2.350805        -2.174421
 H         4.190281         1.603263        -1.376927
 H         2.112090        -0.173111        -1.979603
