19
Iteration:  2649charge 0 multiplicity 1
 C        -0.120852         0.428447         0.076708
 C         1.369821         0.115540         0.021674
 O         1.906567        -1.328935         0.121447
 C         3.082555        -0.551123         0.061033
 C         2.491976         0.430145         1.044718
 C         2.973932         1.948551         1.143758
 O         2.749057         2.668536        -0.153356
 C         3.119756         1.829713        -1.233344
 C         2.551575         0.427666        -1.095087
 H        -0.432662        -0.137733         0.939192
 H        -0.329037         1.508371         0.086052
 H        -0.616587        -0.085731        -0.756873
 H         4.053832        -1.159728         0.073071
 H         2.492371         0.027607         2.069801
 H         2.367668         2.362986         2.020764
 H         4.008012         2.107139         1.486902
 H         2.890434         2.187280        -2.325235
 H         4.266260         1.784298        -1.273276
 H         2.427539        -0.021658        -2.138066
