19
Iteration:  4086
 C        -0.028951         0.449925        -0.017293
 C         1.416329         0.154159         0.025100
 O         1.852340        -1.333208         0.131140
 C         3.091586        -0.466302         0.154527
 C         2.438910         0.538405         1.078943
 C         3.089785         1.917496         1.078948
 O         2.740028         2.625876        -0.091748
 C         2.995189         1.774424        -1.360289
 C         2.567583         0.284265        -1.064834
 H        -0.303608         0.178419         1.102896
 H        -0.330695         1.514195        -0.034967
 H        -0.683195        -0.119894        -0.844455
 H         3.997306        -0.905562         0.444652
 H         2.330135         0.089017         2.169623
 H         2.666507         2.507003         1.941279
 H         4.234430         2.054180         1.289004
 H         2.409620         2.288224        -2.105817
 H         3.976716         1.904800        -1.522903
 H         2.623225        -0.471779        -1.906928
