19
Iteration:   113charge 0 multiplicity 1
 C        -0.037988         0.451346        -0.115903
 C         1.408562         0.175836         0.059981
 O         1.791071        -1.223588         0.125416
 C         3.125231        -0.547288        -0.010171
 C         2.652781         0.439998         1.121221
 C         3.067794         1.879968         1.181160
 O         2.742277         2.643630        -0.079183
 C         2.936666         1.778632        -1.212122
 C         2.533435         0.350514        -1.020410
 H        -0.612511        -0.115288         0.583146
 H        -0.291681         1.401888         0.127943
 H        -0.444168         0.163373        -1.157432
 H         4.108081        -1.216022        -0.027197
 H         2.462751        -0.220441         2.074046
 H         2.443084         2.470171         1.918078
 H         4.141339         2.072547         1.365409
 H         2.435325         2.256477        -2.138182
 H         3.968983         1.793046        -1.537864
 H         2.263236        -0.118982        -2.078876
