19
Iteration:  4189
 C        -0.061619         0.411967         0.099189
 C         1.389983         0.073929        -0.077836
 O         1.867316        -1.308983         0.055847
 C         3.097577        -0.503107         0.173792
 C         2.444198         0.544814         1.119241
 C         3.015102         1.999164         1.105721
 O         2.791631         2.610310        -0.182563
 C         3.066536         1.782770        -1.259415
 C         2.527049         0.355768        -1.050981
 H        -0.309883        -0.015389         1.077304
 H        -0.178293         1.541856         0.088648
 H        -0.761606        -0.069819        -0.557727
 H         4.071281        -1.140747         0.211645
 H         2.359544         0.258874         2.185475
 H         2.341948         2.584459         1.822207
 H         4.109634         1.931114         1.235478
 H         2.914925         2.251022        -2.273255
 H         4.091048         1.697054        -1.279385
 H         2.316568        -0.291397        -1.898609
