19
Iteration:  4438
 C        -0.058471         0.524674        -0.084315
 C         1.411818         0.129701         0.037926
 O         1.855536        -1.323030         0.189396
 C         3.209156        -0.415099         0.109503
 C         2.565809         0.497979         1.124627
 C         3.032962         1.919442         1.108671
 O         2.684762         2.537599        -0.148059
 C         3.016861         1.798735        -1.281329
 C         2.445390         0.325078        -1.056159
 H        -0.557752         0.221234         0.870461
 H        -0.172201         1.605904        -0.080769
 H        -0.464719         0.055051        -1.036285
 H         4.120126        -0.927758         0.226314
 H         2.400145        -0.122324         2.045563
 H         2.623915         2.533449         1.885509
 H         4.167809         1.862788         1.195265
 H         2.440679         2.194577        -2.065496
 H         4.199892         1.689415        -1.375002
 H         2.356393        -0.360949        -1.924543
