19
Iteration:  4985
 C        -0.076857         0.366901        -0.107084
 C         1.474021         0.150666         0.021102
 O         1.837124        -1.258271         0.183605
 C         3.088178        -0.579060         0.150824
 C         2.572107         0.477785         1.112158
 C         3.050120         2.033493         1.145509
 O         2.840961         2.650679        -0.184779
 C         2.949738         1.756141        -1.283423
 C         2.472636         0.382773        -1.010737
 H        -0.499957        -0.354634         0.590934
 H        -0.512330         1.266751         0.307612
 H        -0.422073         0.023368        -1.072636
 H         3.965007        -1.181909         0.166067
 H         2.316322         0.112236         2.109312
 H         2.672156         2.624459         1.842414
 H         4.134138         1.968656         1.398482
 H         2.232502         2.282103        -1.964068
 H         3.972706         1.465544        -1.787753
 H         2.183807         0.007531        -2.001840
