19
Iteration:  1253
 C        -0.089900         0.431588         0.136810
 C         1.360852         0.143546        -0.083464
 O         1.835513        -1.335800        -0.090005
 C         3.140032        -0.483928         0.081760
 C         2.443306         0.532986         1.107878
 C         3.038698         1.954540         1.175967
 O         2.740722         2.596204        -0.078172
 C         3.093503         1.762664        -1.201174
 C         2.562777         0.354532        -1.056924
 H        -0.279304         0.239334         1.236911
 H        -0.263692         1.495050        -0.137001
 H        -0.741167        -0.172747        -0.533955
 H         4.284109        -0.837385         0.247093
 H         2.253057        -0.003822         2.044135
 H         2.372662         2.485223         1.792790
 H         4.136511         1.985081         1.528231
 H         2.829372         2.256744        -2.141068
 H         4.142362         1.682914        -1.349922
 H         2.694815        -0.098685        -2.026695
