19
Iteration:  4201
 C        -0.013859         0.418603         0.129076
 C         1.425942         0.154787         0.031136
 O         1.841854        -1.324749         0.067172
 C         3.076633        -0.457866         0.081369
 C         2.411564         0.558953         1.091220
 C         2.948735         1.945260         1.095556
 O         2.714621         2.618562        -0.179162
 C         3.168460         1.691740        -1.262079
 C         2.573706         0.335070        -1.074263
 H        -0.327330         0.096385         1.104606
 H        -0.223903         1.545934         0.121842
 H        -0.529843        -0.002031        -0.672912
 H         4.155260        -0.891826         0.203682
 H         2.211365         0.083190         2.042432
 H         2.649135         2.648714         1.951107
 H         4.044006         1.934560         1.405441
 H         2.502304         2.127951        -2.076311
 H         4.180732         1.676468        -1.434934
 H         2.581198        -0.129507        -2.056047
