19
Iteration:  2178
 C         0.068658         0.522597        -0.069101
 C         1.497701         0.119938         0.002636
 O         1.877770        -1.349646         0.080851
 C         3.104951        -0.514688         0.146042
 C         2.445211         0.430956         1.130214
 C         2.992516         1.847914         1.108991
 O         2.760772         2.606428        -0.109411
 C         2.902286         1.857742        -1.233937
 C         2.549078         0.403557        -1.012686
 H        -0.474992         0.150344         0.735386
 H         0.118025         1.661412        -0.166463
 H        -0.479807         0.255317        -0.942878
 H         4.065577        -0.974354         0.063405
 H         2.086067         0.086525         2.089659
 H         2.482242         2.357220         1.930638
 H         4.091717         1.930800         1.432026
 H         2.165665         2.224407        -1.947348
 H         3.878127         1.976787        -1.754673
 H         2.374407        -0.246664        -1.938541
