19
Iteration:  3822
 C         0.032795         0.432033         0.009718
 C         1.482155         0.188244         0.020946
 O         1.837414        -1.280302         0.191414
 C         3.076573        -0.524630         0.074345
 C         2.570870         0.465025         1.121731
 C         2.926454         1.931398         1.078898
 O         2.715243         2.638037        -0.217793
 C         3.087206         1.770481        -1.187404
 C         2.446178         0.328727        -1.078409
 H        -0.457841        -0.122308         0.801277
 H         0.001288         1.523866         0.131942
 H        -0.318894         0.183508        -0.965597
 H         3.963365        -1.108975         0.098806
 H         2.316377        -0.068914         2.110023
 H         2.393380         2.601279         1.868210
 H         3.911754         2.075787         1.328561
 H         2.675939         2.123237        -2.113647
 H         4.174197         1.634784        -1.342250
 H         2.273974        -0.108491        -2.065448
