19
Iteration:  4258charge 0 multiplicity 1
 C         0.028079         0.531957        -0.092955
 C         1.462800         0.095324         0.107389
 O         1.880977        -1.285782         0.167338
 C         3.186613        -0.609184         0.048784
 C         2.504104         0.544208         1.134001
 C         3.012152         1.919282         1.119105
 O         2.686702         2.647246        -0.144795
 C         2.956007         1.762451        -1.230378
 C         2.459802         0.306027        -1.052925
 H        -0.675299         0.217018         0.662796
 H        -0.081689         1.626390        -0.092043
 H        -0.404362         0.043600        -0.942396
 H         4.135723        -1.249866         0.063746
 H         2.439712         0.211720         2.142245
 H         2.343091         2.599936         1.709517
 H         4.148126         1.762391         1.190169
 H         2.633868         2.422548        -2.082550
 H         3.989810         1.700202        -1.458963
 H         2.317138        -0.168257        -2.036130
