19
Iteration:  4685
 C        -0.046785         0.555123        -0.088114
 C         1.378692         0.181255         0.055289
 O         1.942769        -1.393788         0.172444
 C         3.111096        -0.510583         0.065787
 C         2.572981         0.520682         1.041934
 C         2.988385         1.958683         1.140735
 O         2.690686         2.641263        -0.148577
 C         2.993384         1.728499        -1.215030
 C         2.490551         0.289822        -1.022263
 H        -0.497519         0.316816         0.899998
 H        -0.214461         1.694463        -0.408504
 H        -0.638998        -0.169484        -0.689697
 H         4.119313        -0.969441         0.160845
 H         2.472838         0.082512         2.064398
 H         2.664913         2.518284         1.961233
 H         4.242149         1.843001         1.290380
 H         2.586197         2.134820        -2.180980
 H         4.058822         1.581602        -1.291404
 H         2.453656        -0.123944        -2.019278
