19
Iteration:  2565
 C         0.024331         0.429334        -0.152565
 C         1.426692         0.093182         0.059286
 O         1.828396        -1.323637         0.108070
 C         3.151825        -0.583203         0.088857
 C         2.578466         0.459956         1.136071
 C         3.089704         1.960921         1.155787
 O         2.694582         2.676246        -0.055039
 C         2.971723         1.826734        -1.214438
 C         2.401124         0.365087        -1.064871
 H        -0.598140         0.176502         0.786741
 H         0.004739         1.505391        -0.161490
 H        -0.203463        -0.124203        -1.114059
 H         4.172592        -1.043319        -0.088210
 H         2.228613         0.012959         2.125863
 H         2.632783         2.695274         1.890980
 H         4.180648         2.010477         1.115511
 H         2.456799         2.385406        -2.058311
 H         4.089102         1.777965        -1.518144
 H         2.183197        -0.113413        -2.009801
