19
Iteration:  1169charge 0 multiplicity 1
 C         0.027983         0.488292        -0.115221
 C         1.418838         0.099833         0.057019
 O         1.863217        -1.335435         0.107321
 C         3.103126        -0.502716         0.094680
 C         2.420209         0.434748         1.117657
 C         3.097193         1.816347         1.086143
 O         2.757739         2.602048        -0.042368
 C         2.981509         1.918337        -1.270029
 C         2.492756         0.427008        -1.026543
 H        -0.554107        -0.198345         0.676392
 H        -0.384824         1.548281         0.041311
 H        -0.356991        -0.011138        -1.108411
 H         4.074068        -1.029169         0.237067
 H         2.332500         0.025827         2.163577
 H         2.809259         2.563042         1.968949
 H         4.256553         1.824681         1.150437
 H         2.361158         2.449320        -2.030035
 H         4.019838         2.066741        -1.523524
 H         2.252585        -0.138314        -2.028270
