19
Iteration:  2994charge 0 multiplicity 1
 C        -0.109025         0.474845        -0.012588
 C         1.425327         0.150130         0.093628
 O         1.860904        -1.347712         0.114453
 C         3.158360        -0.539483         0.043407
 C         2.648753         0.518302         1.080789
 C         2.966248         1.973841         1.111242
 O         2.727624         2.555854        -0.130372
 C         3.043176         1.758684        -1.219408
 C         2.499885         0.369452        -1.091471
 H        -0.548907         0.351005         0.921613
 H        -0.135119         1.549590        -0.363294
 H        -0.515200        -0.150566        -0.717973
 H         4.145690        -0.922409         0.097641
 H         2.383573         0.075635         2.072148
 H         2.161294         2.355503         1.888549
 H         4.008833         2.402869         1.489449
 H         2.530912         2.338170        -2.101191
 H         4.132402         1.854313        -1.171280
 H         2.075622        -0.110107        -2.021984
