19
Iteration:  4792
 C        -0.162531         0.360034        -0.067897
 C         1.372346         0.147182         0.016797
 O         1.894837        -1.311429         0.159766
 C         3.121607        -0.430322         0.121902
 C         2.514377         0.548573         1.151002
 C         3.070805         2.024008         1.146459
 O         2.829843         2.619358        -0.115399
 C         3.001767         1.706051        -1.322925
 C         2.462654         0.305250        -1.060920
 H        -0.612257        -0.137719         0.720461
 H        -0.201830         1.467792         0.191176
 H        -0.352035         0.066476        -1.043014
 H         4.022189        -1.103430         0.035389
 H         2.382768         0.086936         2.102520
 H         2.553673         2.598859         1.912423
 H         4.280825         1.987546         1.329864
 H         2.541159         2.219504        -2.109765
 H         4.116940         1.682941        -1.734621
 H         2.345754        -0.172702        -2.015309
