19
Iteration:  1521
 C        -0.082183         0.444794        -0.173355
 C         1.356250         0.140192         0.112065
 O         1.867321        -1.279234         0.122292
 C         3.123496        -0.587339         0.015822
 C         2.583449         0.461498         1.118692
 C         3.096624         1.890643         1.096048
 O         2.695591         2.637298        -0.040446
 C         3.012951         1.870382        -1.235142
 C         2.531262         0.345516        -0.999460
 H        -0.688887        -0.091628         0.509578
 H        -0.432946         1.592885         0.090834
 H        -0.392573         0.112091        -1.163770
 H         4.113655        -1.144830        -0.177729
 H         2.695552         0.164523         2.142303
 H         2.651273         2.357808         2.059444
 H         4.118937         1.946749         1.294948
 H         2.346010         2.310634        -1.970773
 H         4.062930         1.865026        -1.401754
 H         2.301364        -0.079751        -1.996076
