19
Iteration:  3059charge 0 multiplicity 1
 C        -0.063729         0.424583         0.030235
 C         1.435821         0.153222         0.025185
 O         1.863694        -1.271539         0.060709
 C         3.124328        -0.469816         0.099170
 C         2.485127         0.467979         1.184585
 C         3.048636         1.935203         1.145946
 O         2.688851         2.597781        -0.162736
 C         3.022261         1.747829        -1.295872
 C         2.640262         0.328497        -1.063144
 H        -0.564753        -0.080335         0.826410
 H        -0.257006         1.550725         0.346492
 H        -0.573499         0.276311        -0.884907
 H         4.051383        -0.867376         0.276550
 H         2.204138         0.077578         2.201502
 H         2.462108         2.731042         1.715872
 H         4.156774         1.930770         1.153873
 H         2.323082         2.077264        -2.126090
 H         4.093573         1.732246        -1.540071
 H         2.199721        -0.149516        -1.945101
