19
Iteration:  2431
 C        -0.118153         0.409072         0.034481
 C         1.351955         0.056417         0.015726
 O         1.875217        -1.352365         0.041655
 C         3.102295        -0.475727         0.120197
 C         2.512823         0.507043         1.054034
 C         3.013077         1.950780         1.187291
 O         2.819531         2.633749        -0.075524
 C         3.073093         1.870815        -1.281358
 C         2.567537         0.338263        -1.071914
 H        -0.580609         0.075715         0.934035
 H        -0.178801         1.500609        -0.342342
 H        -0.623702        -0.057678        -0.835939
 H         4.012121        -1.065042         0.126666
 H         2.380306         0.018880         2.027201
 H         2.251111         2.478290         1.943780
 H         4.037334         2.030942         1.519317
 H         2.247414         2.435276        -1.877782
 H         4.033407         1.889513        -1.653985
 H         2.524725        -0.139939        -2.092195
