19
Iteration:  3927
 C        -0.052026         0.348947        -0.100971
 C         1.406336         0.126377         0.140720
 O         1.860865        -1.228773         0.178451
 C         3.105153        -0.444643         0.132219
 C         2.500466         0.551219         1.099925
 C         3.118809         1.938503         1.106173
 O         2.794299         2.571928        -0.104522
 C         2.958626         1.750577        -1.305826
 C         2.433474         0.379928        -1.105012
 H        -0.750465         0.063690         0.682492
 H        -0.310443         1.494139        -0.337773
 H        -0.178992        -0.298580        -0.979300
 H         4.095190        -0.987212         0.311577
 H         2.522024        -0.008891         1.974745
 H         2.617662         2.510545         1.811648
 H         4.163608         1.826013         1.258307
 H         2.665273         2.299690        -2.229717
 H         4.106613         1.554715        -1.386138
 H         2.179968        -0.199478        -1.981141
