19
Iteration:  1632
 C        -0.124078         0.366165        -0.028235
 C         1.393364         0.135552        -0.026921
 O         1.908003        -1.302823         0.106083
 C         3.109993        -0.502723         0.005668
 C         2.547550         0.494603         1.114784
 C         2.984153         1.923180         1.215079
 O         2.831607         2.646641        -0.044262
 C         3.065705         1.779248        -1.222996
 C         2.426677         0.377311        -1.121738
 H        -0.473477        -0.023415         0.876610
 H        -0.174916         1.542694        -0.117471
 H        -0.640323        -0.026167        -0.852178
 H         4.123658        -1.011706        -0.087719
 H         2.254661         0.105628         2.081521
 H         2.334418         2.546140         1.935576
 H         4.074037         1.963341         1.397074
 H         2.663568         2.490335        -2.002755
 H         4.212718         1.595784        -1.407046
 H         2.199656        -0.014164        -2.130287
