19
Iteration:  1902charge 0 multiplicity 1
 C         0.042295         0.484977         0.014334
 C         1.429788         0.084741         0.033124
 O         1.859342        -1.338515         0.071641
 C         3.143805        -0.463395         0.084933
 C         2.445643         0.453331         1.080626
 C         2.956507         1.899793         1.116132
 O         2.764145         2.607155        -0.088755
 C         3.007264         1.820332        -1.240006
 C         2.505243         0.378256        -1.067248
 H        -0.649634         0.165808         0.846700
 H         0.032484         1.536594         0.101402
 H        -0.303065         0.015974        -0.916229
 H         4.191121        -0.947009         0.138256
 H         2.112723         0.191207         2.100485
 H         2.495721         2.545150         1.861203
 H         4.057387         1.841017         1.474779
 H         2.516659         2.377239        -2.085745
 H         4.068471         1.812510        -1.542363
 H         2.379891        -0.185960        -2.060025
