19
Iteration:   516
 C        -0.068174         0.493713         0.095524
 C         1.432467         0.116731        -0.062029
 O         1.837571        -1.286930         0.007625
 C         3.159534        -0.560620         0.128920
 C         2.449749         0.427737         1.080712
 C         2.984949         1.938073         1.151211
 O         2.776730         2.620311        -0.070549
 C         3.017256         1.833188        -1.300046
 C         2.583571         0.343721        -1.046148
 H        -0.311105         0.104169         1.125886
 H        -0.072914         1.473862         0.180875
 H        -0.728389         0.057701        -0.735692
 H         4.151271        -0.994596         0.110813
 H         2.147360         0.066533         2.024491
 H         2.409468         2.556384         1.820116
 H         4.105340         1.833180         1.442633
 H         2.349216         2.263181        -2.033498
 H         4.035202         1.954450        -1.633946
 H         2.618861        -0.209585        -1.968841
