19
Iteration:   235charge 0 multiplicity 1
 C        -0.114641         0.480301        -0.031938
 C         1.341971         0.118825         0.080867
 O         1.988239        -1.266820         0.093216
 C         3.111284        -0.445384        -0.114321
 C         2.484917         0.467275         1.102878
 C         2.987383         1.940204         1.249993
 O         2.824816         2.578659        -0.070724
 C         3.063966         1.704021        -1.223937
 C         2.415071         0.371129        -1.082118
 H        -0.748454         0.472820         0.882336
 H        -0.058761         1.536594        -0.237257
 H        -0.667439        -0.012104        -0.771138
 H         4.113814        -0.904429        -0.326854
 H         2.536656        -0.177739         2.013499
 H         2.416478         2.527026         1.979653
 H         4.057569         1.935328         1.551037
 H         2.745408         2.300599        -2.124882
 H         4.186810         1.555413        -1.278407
 H         2.177537        -0.308553        -1.915951
