19
Iteration:  2813
 C        -0.123461         0.444541         0.064053
 C         1.400548         0.147498        -0.003326
 O         1.854334        -1.284743         0.112048
 C         3.196642        -0.490891         0.070418
 C         2.556670         0.465229         1.073176
 C         3.001661         1.902200         1.100426
 O         2.651620         2.596310        -0.161554
 C         3.109148         1.792434        -1.234733
 C         2.548331         0.406738        -1.067075
 H        -0.400061        -0.004638         1.081804
 H        -0.406137         1.509910        -0.039808
 H        -0.804791        -0.241343        -0.576299
 H         4.119421        -1.231456         0.159824
 H         2.304649        -0.041373         2.000587
 H         2.541286         2.471326         1.904773
 H         4.043248         2.107328         1.426783
 H         2.858334         2.335908        -2.084949
 H         4.268989         1.823269        -1.246038
 H         2.347879        -0.173565        -1.968149
