19
Iteration:  1557
 C         0.024628         0.439683         0.032319
 C         1.455929         0.070089        -0.069247
 O         1.880889        -1.265509         0.015827
 C         3.095699        -0.474118         0.103428
 C         2.424216         0.540224         1.080952
 C         3.012420         1.903036         1.161161
 O         2.720467         2.584832        -0.017451
 C         3.052000         1.774143        -1.234380
 C         2.492755         0.365948        -1.080026
 H        -0.129093         0.081669         1.076817
 H        -0.076090         1.646421        -0.129191
 H        -0.651243        -0.035388        -0.688103
 H         3.955976        -1.085902        -0.056834
 H         2.229359         0.073164         2.082592
 H         2.472016         2.620255         1.910169
 H         4.072873         1.722316         1.294967
 H         2.621980         2.468808        -2.072392
 H         4.093010         1.850958        -1.489386
 H         2.341302        -0.329198        -1.926104
