19
Iteration:  2948charge 0 multiplicity 1
 C        -0.055964         0.345796         0.033963
 C         1.366958         0.117692        -0.094372
 O         1.847453        -1.350059         0.098691
 C         3.079168        -0.480746         0.151048
 C         2.497956         0.556561         1.073956
 C         3.099072         1.931332         1.072969
 O         2.753569         2.653908        -0.094128
 C         3.032185         1.812325        -1.234866
 C         2.508626         0.392923        -1.046924
 H        -0.335561         0.088103         1.068649
 H        -0.284420         1.387613        -0.256955
 H        -0.529939        -0.333138        -0.703310
 H         3.979541        -0.971001         0.403289
 H         2.377376         0.163913         2.110007
 H         2.823098         2.621337         1.994908
 H         4.231092         1.739494         1.278855
 H         2.357091         2.328050        -1.953962
 H         4.129244         1.658708        -1.566710
 H         2.541153        -0.102120        -2.012485
