19
Iteration:  3091
 C        -0.120343         0.314739        -0.055101
 C         1.417893         0.134344         0.056234
 O         1.849009        -1.285238         0.232284
 C         3.095433        -0.541753         0.017861
 C         2.500516         0.525313         1.102142
 C         3.093130         1.935504         1.083439
 O         2.751671         2.704769        -0.129830
 C         3.045898         1.786347        -1.197025
 C         2.540384         0.349558        -1.111681
 H        -0.690187        -0.262153         0.681607
 H        -0.280674         1.485890         0.077319
 H        -0.483581         0.054422        -1.053752
 H         4.004799        -1.088537         0.097568
 H         2.491966        -0.006461         2.081246
 H         2.687982         2.665436         1.860309
 H         4.174915         2.048854         1.263782
 H         2.520153         2.228644        -2.062328
 H         4.162365         1.800631        -1.427003
 H         2.171211        -0.134468        -1.996494
