19
Iteration:   271charge 0 multiplicity 1
 C        -0.077217         0.384360        -0.024924
 C         1.461982         0.104121         0.044235
 O         1.792587        -1.274872         0.099498
 C         3.075892        -0.558137         0.045027
 C         2.501040         0.423365         1.150812
 C         3.037787         1.861263         1.161677
 O         2.811577         2.703660        -0.083588
 C         3.001071         1.920541        -1.319607
 C         2.577820         0.365555        -1.059417
 H        -0.443311        -0.105822         0.891239
 H        -0.050755         1.556051         0.108538
 H        -0.482290         0.052694        -0.946708
 H         3.830593        -1.264151         0.086010
 H         2.155051         0.050324         2.111146
 H         2.588246         2.446530         1.940510
 H         4.131507         1.749371         1.366451
 H         2.366914         2.250422        -2.090933
 H         4.058968         2.051977        -1.754163
 H         2.483611        -0.106526        -2.030760
