19
Iteration:  4018
 C        -0.044580         0.488890         0.044021
 C         1.392339         0.085907         0.029612
 O         1.922489        -1.268113         0.160663
 C         3.069669        -0.541958         0.076669
 C         2.526916         0.469367         1.057691
 C         2.940608         2.013832         1.072467
 O         2.710970         2.644479        -0.143923
 C         3.085683         1.706403        -1.263692
 C         2.540454         0.289882        -1.059490
 H        -0.434920         0.249962         1.088381
 H         0.082502         1.706211         0.170359
 H        -0.536710         0.100977        -0.920932
 H         4.026594        -1.032041        -0.092687
 H         2.469074         0.195973         2.137399
 H         2.203282         2.457843         1.694825
 H         4.074777         2.017230         1.579550
 H         2.691694         2.250693        -2.125419
 H         4.188457         1.579827        -1.370757
 H         2.210559        -0.147824        -2.009659
