19
Iteration:  3063
 C        -0.037240         0.420367         0.021325
 C         1.453800         0.168755         0.023325
 O         1.832364        -1.284800         0.075564
 C         3.146976        -0.469931         0.133768
 C         2.440741         0.471486         1.175327
 C         3.085976         1.918060         1.106329
 O         2.687848         2.596129        -0.170839
 C         3.034318         1.779893        -1.282913
 C         2.569055         0.361086        -1.055011
 H        -0.474005        -0.218227         0.809576
 H        -0.232812         1.370702         0.285654
 H        -0.524504         0.207110        -0.943655
 H         4.148927        -1.015593         0.273148
 H         2.281785        -0.008859         2.132681
 H         2.507187         2.612236         1.636028
 H         4.224171         2.125655         1.276531
 H         2.380406         2.192899        -2.097740
 H         4.102638         1.789275        -1.494682
 H         2.183991        -0.281186        -1.913045
