19
Iteration:   721
 C        -0.078497         0.461591         0.126505
 C         1.357164         0.124714         0.030930
 O         1.869394        -1.333733        -0.011564
 C         3.125112        -0.541414         0.082412
 C         2.406924         0.464759         1.098752
 C         3.013147         1.902638         1.083342
 O         2.695595         2.628119        -0.107845
 C         3.123570         1.839828        -1.203121
 C         2.654773         0.425733        -1.114487
 H        -0.338067         0.204388         1.259349
 H        -0.191484         1.460603         0.028314
 H        -0.840601        -0.220138        -0.501063
 H         3.959751        -1.119095         0.131746
 H         2.180118         0.022362         2.029900
 H         2.411640         2.265418         1.879648
 H         4.150750         1.988103         1.217336
 H         2.706680         2.406213        -2.123075
 H         4.203049         1.731179        -1.273196
 H         2.734745        -0.031280        -2.089064
