19
Iteration:  4512charge 0 multiplicity 1
 C        -0.122807         0.491084         0.018387
 C         1.388388         0.140048         0.006950
 O         1.944534        -1.342595         0.111336
 C         3.134772        -0.487699         0.094044
 C         2.398949         0.498534         1.176452
 C         3.037955         1.986409         1.121802
 O         2.766139         2.565884        -0.150029
 C         3.046998         1.756666        -1.307559
 C         2.602942         0.350977        -1.108443
 H        -0.469368         0.282350         1.096347
 H        -0.366512         1.523416         0.005014
 H        -0.707129        -0.241872        -0.655933
 H         4.148033        -0.770711         0.275167
 H         2.201684        -0.002970         2.155188
 H         2.467930         2.626014         1.948459
 H         4.220725         1.938333         1.253755
 H         2.356054         2.148913        -2.137645
 H         4.060639         1.817446        -1.511556
 H         2.122310        -0.177781        -1.926341
