19
Iteration:   385charge 0 multiplicity 1
 C        -0.053670         0.517867         0.142749
 C         1.386931         0.194661        -0.036813
 O         1.901925        -1.314004         0.016985
 C         3.128366        -0.464908         0.087788
 C         2.504551         0.390235         1.078215
 C         2.920393         1.848972         1.150280
 O         2.787091         2.614718        -0.064438
 C         3.056042         1.800334        -1.309995
 C         2.552535         0.368132        -1.089424
 H        -0.302994         0.405799         1.253024
 H        -0.342933         1.471931        -0.139595
 H        -0.848273        -0.100650        -0.546291
 H         4.068569        -1.073230         0.148691
 H         2.244922        -0.175619         1.970419
 H         2.271769         2.437123         1.861763
 H         3.993602         1.884594         1.444535
 H         2.658855         2.409320        -2.135458
 H         4.186726         1.899812        -1.512429
 H         2.353157        -0.283002        -1.955404
