19
Iteration:  1542
 C        -0.084182         0.430454        -0.027290
 C         1.453048         0.184614        -0.012581
 O         1.854301        -1.299963         0.107371
 C         3.125739        -0.467242         0.049392
 C         2.509713         0.430136         1.120285
 C         3.069977         1.872057         1.179873
 O         2.705529         2.555442        -0.082434
 C         3.002417         1.830159        -1.238719
 C         2.545928         0.403649        -1.114100
 H        -0.645921         0.097863         0.808031
 H        -0.213649         1.576186        -0.047594
 H        -0.511432         0.006532        -0.946089
 H         4.122299        -0.973222         0.319217
 H         2.238972        -0.004084         2.055719
 H         2.618820         2.460915         2.013934
 H         4.149784         1.996249         1.260078
 H         2.492599         2.289762        -2.048474
 H         4.092275         1.848279        -1.276429
 H         2.471048        -0.044404        -2.112478
