19
Iteration:  1465
 C        -0.154203         0.475150         0.075726
 C         1.374331         0.113794        -0.044874
 O         1.905671        -1.298272         0.023407
 C         3.143643        -0.509687         0.161802
 C         2.475890         0.400156         1.113371
 C         2.994785         1.890625         1.159873
 O         2.793253         2.591007        -0.093853
 C         3.062510         1.846961        -1.297526
 C         2.586706         0.405973        -1.063368
 H        -0.605469        -0.025950         0.982008
 H        -0.355491         1.627433         0.058572
 H        -0.673571         0.115374        -0.877706
 H         4.141258        -1.112114         0.129101
 H         2.274911        -0.009229         2.085814
 H         2.431890         2.473283         1.909747
 H         4.023395         1.988834         1.316252
 H         2.370075         2.299377        -2.021233
 H         4.051757         2.027439        -1.724205
 H         2.604238         0.003409        -2.083653
