19
Iteration:   725
 C        -0.101213         0.462811         0.142661
 C         1.336003         0.118581         0.024280
 O         1.885049        -1.361294        -0.018779
 C         3.125204        -0.522380         0.094453
 C         2.432362         0.477109         1.072454
 C         3.024501         1.901435         1.052810
 O         2.686032         2.610320        -0.075983
 C         3.142893         1.823807        -1.212236
 C         2.628794         0.441834        -1.111779
 H        -0.463161         0.307424         1.170063
 H        -0.332651         1.584603        -0.020053
 H        -0.804927        -0.138694        -0.479196
 H         4.096734        -1.155469         0.204377
 H         2.268284        -0.000919         2.054688
 H         2.358051         2.392975         1.812093
 H         4.090855         2.019768         1.270747
 H         2.770630         2.465533        -1.926735
 H         4.281158         1.779934        -1.366762
 H         2.777537        -0.129456        -2.053794
