19
Iteration:  2256charge 0 multiplicity 1
 C        -0.165366         0.332452        -0.069383
 C         1.384896         0.160040         0.060426
 O         1.881613        -1.311935         0.159461
 C         3.073935        -0.518598        -0.035987
 C         2.539339         0.459071         1.082171
 C         2.985408         1.927243         1.102924
 O         2.800752         2.629197        -0.100145
 C         3.134684         1.805959        -1.199717
 C         2.502241         0.496596        -1.000207
 H        -0.645336         0.025413         0.784381
 H        -0.461296         1.428101        -0.043986
 H        -0.504240        -0.256069        -0.892256
 H         4.001788        -1.021781        -0.259602
 H         2.517060         0.040230         2.080630
 H         2.391568         2.447974         1.867752
 H         4.082542         1.989296         1.549191
 H         2.855965         2.183928        -2.151253
 H         4.269090         1.762962        -1.295717
 H         2.358624        -0.075679        -1.960722
