19
Iteration:  2739
 C         0.005962         0.454827        -0.051381
 C         1.485160         0.129428        -0.026411
 O         1.871378        -1.324128         0.119815
 C         3.148085        -0.479746         0.134896
 C         2.402468         0.524621         1.150499
 C         3.070575         1.878188         1.120344
 O         2.793465         2.593614        -0.097492
 C         2.870047         1.808023        -1.296077
 C         2.563772         0.359054        -1.073559
 H        -0.357728         0.032011         0.895635
 H        -0.187585         1.425890        -0.110758
 H        -0.627987        -0.029084        -0.793021
 H         4.179457        -0.772646         0.181760
 H         2.183419        -0.016133         2.082099
 H         2.536567         2.624276         1.821938
 H         4.070045         1.833312         1.519865
 H         2.056481         2.395367        -1.903175
 H         3.923686         1.852540        -1.718845
 H         2.283965        -0.201390        -1.925376
