19
Iteration:   243
 C        -0.094700         0.494917        -0.041970
 C         1.364693         0.140212         0.098619
 O         1.967203        -1.298870         0.067657
 C         3.137230        -0.415763        -0.072799
 C         2.547715         0.524895         1.079220
 C         2.980677         1.884030         1.198968
 O         2.836103         2.551955        -0.055306
 C         3.030899         1.679561        -1.157075
 C         2.389380         0.381713        -1.079673
 H        -0.639854         0.250922         0.871696
 H        -0.231076         1.513995        -0.278040
 H        -0.762670         0.035970        -1.004493
 H         4.160504        -1.037985        -0.172870
 H         2.301089         0.069757         2.084529
 H         2.443736         2.673216         1.870763
 H         4.065100         1.988358         1.472407
 H         2.535779         2.292957        -2.042627
 H         4.139465         1.595038        -1.306893
 H         2.116509        -0.158525        -2.084169
