19
Iteration:   508
 C        -0.103227         0.512755         0.109950
 C         1.441948         0.117408        -0.031981
 O         1.869726        -1.380005         0.024324
 C         3.145548        -0.513852         0.130950
 C         2.431968         0.404671         1.074855
 C         3.005624         1.912888         1.146223
 O         2.779448         2.673597        -0.053565
 C         3.027159         1.839086        -1.360379
 C         2.618102         0.341501        -1.049382
 H        -0.683342         0.079476         0.934652
 H        -0.351655         1.652589         0.170637
 H        -0.665190         0.237220        -0.730591
 H         4.129139        -0.981798         0.228507
 H         1.971908        -0.097068         1.965839
 H         2.616869         2.568871         1.935781
 H         4.066036         1.882618         1.188761
 H         2.272253         2.477270        -1.941141
 H         4.086108         1.951376        -1.714250
 H         2.616083        -0.294823        -1.907472
