19
Iteration:  2804charge 0 multiplicity 1
 C        -0.034557         0.398766         0.020080
 C         1.393193         0.146893         0.064521
 O         1.879698        -1.258642         0.137789
 C         3.117221        -0.537500        -0.025730
 C         2.509566         0.475868         1.116705
 C         3.017538         1.923573         1.096010
 O         2.655732         2.637958        -0.117007
 C         3.109622         1.819896        -1.226076
 C         2.527458         0.335545        -1.111610
 H        -0.371761         0.228522         1.072553
 H        -0.203597         1.389245        -0.118464
 H        -0.647745        -0.156719        -0.720927
 H         4.017429        -1.181440         0.132373
 H         2.439119         0.193873         2.170111
 H         2.380871         2.377717         1.920603
 H         4.082998         2.038099         1.225989
 H         2.784818         2.216346        -2.190281
 H         4.161923         1.763930        -1.084819
 H         2.350701        -0.141904        -2.041652
