19
Iteration:  2639
 C        -0.103179         0.406603         0.110201
 C         1.416671         0.131819         0.026982
 O         1.861520        -1.320887         0.088979
 C         3.174237        -0.525077         0.083276
 C         2.492656         0.442374         1.077277
 C         2.943359         1.845681         1.053077
 O         2.739980         2.662503        -0.134389
 C         3.115187         1.880452        -1.248289
 C         2.594188         0.393960        -1.066550
 H        -0.627397         0.158101         1.035854
 H        -0.073538         1.466265         0.002126
 H        -0.639286         0.073969        -0.784817
 H         4.047782        -1.077330         0.340946
 H         2.106232        -0.030457         2.010608
 H         2.237664         2.546127         1.634718
 H         4.003468         1.943825         1.382135
 H         2.548023         2.448002        -2.112061
 H         4.204256         1.703801        -1.286970
 H         2.221296        -0.058386        -2.022686
