19
Iteration:   396
 C        -0.187214         0.572492         0.134126
 C         1.430027         0.130692        -0.041395
 O         1.966671        -1.320098        -0.003926
 C         3.172822        -0.501508         0.074853
 C         2.395812         0.407178         1.095475
 C         2.988361         1.846658         1.160288
 O         2.789737         2.572233        -0.125429
 C         3.034846         1.841911        -1.256975
 C         2.523982         0.414191        -1.086502
 H        -0.316710         0.381735         1.251917
 H        -0.199102         1.568632        -0.060728
 H        -0.892406        -0.237569        -0.425024
 H         4.198298        -0.897947         0.291898
 H         2.191965         0.020606         2.079411
 H         2.469710         2.414441         1.989465
 H         4.066731         1.939401         1.403496
 H         2.649836         2.396451        -2.127995
 H         4.164430         1.551643        -1.377842
 H         2.507613        -0.161340        -2.015338
