19
Iteration:  1053charge 0 multiplicity 1
 C         0.013881         0.453260         0.107632
 C         1.434305         0.117452        -0.049934
 O         1.865923        -1.311642         0.055463
 C         3.066704        -0.461778         0.046202
 C         2.419420         0.454596         1.053148
 C         2.880556         1.864883         1.156588
 O         2.825130         2.607772        -0.077256
 C         3.105421         1.798286        -1.229425
 C         2.531991         0.411420        -1.086117
 H        -0.321000         0.143233         1.034398
 H        -0.241948         1.556990        -0.072209
 H        -0.479798        -0.148473        -0.558010
 H         4.139650        -0.801851         0.176353
 H         2.160785        -0.036123         2.018654
 H         2.382209         2.477428         1.902886
 H         3.969029         1.842015         1.381953
 H         2.619379         2.489261        -1.982704
 H         4.088654         1.783463        -1.630836
 H         2.444944        -0.152459        -1.994159
