19
Iteration:  3168charge 0 multiplicity 1
 C        -0.066331         0.425596         0.024120
 C         1.374441         0.046200         0.001589
 O         1.897478        -1.268164         0.094303
 C         3.106970        -0.557818         0.088695
 C         2.514414         0.531819         1.024297
 C         3.008008         2.033374         1.141483
 O         2.795881         2.647459        -0.094434
 C         2.991330         1.732922        -1.240722
 C         2.554246         0.300547        -1.068888
 H        -0.320284         0.362635         1.106716
 H        -0.173667         1.629438        -0.302394
 H        -0.753256        -0.257342        -0.492692
 H         3.991550        -1.103813         0.229499
 H         2.217892         0.065556         1.985212
 H         2.451780         2.727146         1.861396
 H         4.104495         2.200496         1.494450
 H         2.344015         2.246305        -1.962561
 H         3.999681         1.809820        -1.725203
 H         2.496073        -0.351658        -1.933987
