19
Iteration:  2057
 C        -0.079785         0.386042        -0.072523
 C         1.414888         0.072913         0.013151
 O         1.872114        -1.337759         0.110652
 C         3.110508        -0.453169         0.047238
 C         2.519447         0.499931         1.108693
 C         2.955124         1.930331         1.202614
 O         2.912710         2.607477        -0.073864
 C         2.968459         1.831301        -1.263064
 C         2.465059         0.395812        -1.060573
 H        -0.509802        -0.180359         0.770906
 H        -0.128995         1.560791        -0.080784
 H        -0.510902         0.192369        -1.056112
 H         4.115388        -0.983172         0.134487
 H         2.366050         0.114866         2.118328
 H         2.369957         2.623170         1.788881
 H         4.001906         1.913093         1.586329
 H         2.413695         2.370891        -2.041368
 H         4.053944         1.707253        -1.493591
 H         2.276878        -0.044572        -2.111805
