19
Iteration:    72
 C        -0.120707         0.466570         0.074510
 C         1.343919         0.068034        -0.082046
 O         1.903816        -1.336034        -0.011228
 C         3.139030        -0.472490         0.116451
 C         2.410635         0.470066         1.093373
 C         3.083165         1.891867         1.115363
 O         2.792311         2.695825        -0.059123
 C         3.011390         1.774556        -1.239438
 C         2.560071         0.352659        -1.031290
 H        -0.434551         0.164331         1.119206
 H        -0.123743         1.633166        -0.071843
 H        -0.986331         0.150606        -0.638138
 H         4.092838        -1.027301         0.124530
 H         2.287207         0.033881         2.167440
 H         2.802201         2.562121         1.940721
 H         4.213854         1.809729         1.245388
 H         2.445112         2.286053        -2.017514
 H         4.124821         1.853010        -1.438093
 H         2.555172        -0.287629        -1.966423
