19
Iteration:  4560
 C        -0.084643         0.370188         0.044629
 C         1.391028         0.208859         0.064557
 O         1.862481        -1.382323         0.176895
 C         3.074929        -0.552564         0.021256
 C         2.585401         0.547044         1.051843
 C         2.902845         2.031758         1.188846
 O         2.832435         2.642389        -0.171346
 C         3.136717         1.786835        -1.302863
 C         2.480448         0.366700        -1.086492
 H        -0.658640        -0.090328         0.900823
 H        -0.444734         1.463737         0.291812
 H        -0.413696        -0.208168        -0.867786
 H         4.003604        -1.146518        -0.175140
 H         2.403664         0.170245         2.068018
 H         2.129516         2.427200         1.849895
 H         3.922623         2.104866         1.626339
 H         2.746325         2.307112        -2.172396
 H         4.171505         1.705706        -1.626169
 H         2.429960        -0.446173        -1.858605
