19
Iteration:  2181charge 0 multiplicity 1
 C         0.075283         0.514111        -0.069577
 C         1.491261         0.130057         0.005568
 O         1.870728        -1.365690         0.080756
 C         3.093582        -0.529834         0.170406
 C         2.438999         0.444585         1.137510
 C         2.999688         1.834371         1.099785
 O         2.764984         2.606267        -0.093210
 C         2.883393         1.877532        -1.268993
 C         2.562114         0.414510        -1.023716
 H        -0.525798         0.158332         0.820059
 H         0.171178         1.697135        -0.075911
 H        -0.480916         0.175376        -1.008467
 H         4.174272        -1.020780         0.048905
 H         2.085871         0.093545         2.114968
 H         2.505492         2.311915         1.862555
 H         4.009272         1.960245         1.406876
 H         2.257981         2.346093        -1.996350
 H         3.861810         1.953667        -1.785009
 H         2.484428        -0.202835        -1.889745
