19
Iteration:   126charge 0 multiplicity 1
 C        -0.103319         0.467918        -0.115714
 C         1.410053         0.058744         0.029436
 O         1.841327        -1.370264         0.139513
 C         3.058910        -0.575573         0.026659
 C         2.689901         0.488975         1.061037
 C         3.099440         2.022219         1.134275
 O         2.753073         2.611415        -0.050217
 C         3.019085         1.814892        -1.147529
 C         2.409447         0.418176        -1.061625
 H        -0.818899        -0.114044         0.494007
 H        -0.084828         1.563145         0.011871
 H        -0.302089         0.363368        -1.212013
 H         3.948735        -1.240319        -0.083324
 H         2.548035         0.209810         2.170437
 H         2.513484         2.388134         1.987546
 H         4.177125         2.141746         1.414866
 H         2.386847         2.291616        -1.910389
 H         4.074334         1.771788        -1.396909
 H         2.289496        -0.031054        -2.110452
