19
Iteration:  3038
 C        -0.046191         0.540286         0.074316
 C         1.421317         0.103771         0.005615
 O         1.916170        -1.344522         0.115087
 C         3.189080        -0.501900         0.142374
 C         2.437869         0.507183         1.039527
 C         2.987126         1.916986         1.083295
 O         2.712166         2.572274        -0.118358
 C         3.023460         1.818103        -1.279432
 C         2.539593         0.323460        -1.078767
 H        -0.525723         0.126922         0.910025
 H        -0.147453         1.657133         0.216847
 H        -0.523115         0.266412        -0.806360
 H         4.031249        -1.109659         0.155429
 H         2.398590         0.070918         2.058833
 H         2.182762         2.528235         1.677156
 H         4.068831         2.071795         1.343047
 H         2.319716         2.344771        -2.017060
 H         4.086280         1.846506        -1.495369
 H         2.674981        -0.395529        -1.927161
