19
Iteration:  2005
 C        -0.013126         0.414086        -0.052021
 C         1.432329         0.078537        -0.074532
 O         1.880230        -1.264890         0.138422
 C         3.159656        -0.452118         0.077300
 C         2.395243         0.425095         1.159413
 C         3.011474         1.902506         1.176528
 O         2.871517         2.609955        -0.048299
 C         2.911097         1.829975        -1.307363
 C         2.505328         0.373553        -1.056545
 H        -0.437317         0.061983         0.852769
 H        -0.093196         1.584002        -0.042231
 H        -0.415653         0.104234        -1.008495
 H         4.193024        -1.134879         0.037663
 H         1.973499         0.070809         2.069577
 H         2.462869         2.636353         1.713362
 H         4.132607         1.743816         1.435165
 H         2.210196         2.313313        -1.922860
 H         3.940398         1.893402        -1.745308
 H         2.431172        -0.104078        -1.992345
