19
Iteration:  2655
 C        -0.087729         0.401465         0.047648
 C         1.386173         0.118925         0.003870
 O         1.886281        -1.340383         0.115772
 C         3.056968        -0.530000         0.007642
 C         2.526464         0.490177         1.074173
 C         2.964824         1.995531         1.167889
 O         2.746579         2.665244        -0.130318
 C         3.151036         1.766214        -1.217861
 C         2.500502         0.397847        -1.100976
 H        -0.460480        -0.093351         0.989413
 H        -0.509122         1.450521         0.248768
 H        -0.595729        -0.070093        -0.805119
 H         4.085464        -1.050401        -0.083580
 H         2.511972         0.057895         2.084563
 H         2.382429         2.413581         1.941762
 H         4.056719         2.020148         1.404969
 H         2.904624         2.296857        -2.085572
 H         4.238852         1.808554        -1.326625
 H         2.523235        -0.160592        -2.020099
