19
Iteration:   901charge 0 multiplicity 1
 C        -0.151684         0.496294         0.098417
 C         1.360408         0.162294         0.024893
 O         1.913323        -1.358731         0.082626
 C         3.140656        -0.479056        -0.055296
 C         2.578983         0.466111         1.085729
 C         2.922517         1.892821         1.208059
 O         2.715720         2.601778        -0.113662
 C         3.166766         1.763026        -1.230113
 C         2.475607         0.372114        -1.136900
 H        -0.501736         0.363297         1.113899
 H        -0.209364         1.693365        -0.163206
 H        -0.715814         0.070565        -0.711934
 H         4.219330        -1.009765        -0.029026
 H         2.448787        -0.106643         2.040548
 H         2.306696         2.479061         1.936547
 H         3.940086         2.157180         1.573161
 H         2.844144         2.312408        -2.084653
 H         4.291534         1.844447        -1.152339
 H         2.634277        -0.230690        -2.060553
