19
Iteration:  4613charge 0 multiplicity 1
 C        -0.106287         0.448621         0.007700
 C         1.410999         0.150341         0.016736
 O         1.965239        -1.352997         0.139963
 C         3.085228        -0.527704         0.187576
 C         2.404394         0.523027         1.102395
 C         3.093156         1.951025         1.043336
 O         2.752705         2.606543        -0.160733
 C         3.009719         1.799802        -1.239944
 C         2.526303         0.382302        -1.111624
 H        -0.602259        -0.124742         0.871390
 H        -0.021217         1.598802         0.095539
 H        -0.722504         0.044158        -0.876113
 H         3.900958        -1.168743         0.459813
 H         2.304658         0.148987         2.139696
 H         2.594550         2.630512         1.928078
 H         4.251429         1.858193         1.347557
 H         2.507797         2.258483        -2.101409
 H         4.022711         1.809045        -1.688960
 H         2.441721        -0.289318        -2.011770
