19
Iteration:   189
 C        -0.033702         0.441264         0.141179
 C         1.407437         0.166866        -0.059216
 O         1.766716        -1.279125        -0.032608
 C         3.092928        -0.564922         0.098318
 C         2.517103         0.461920         1.147166
 C         3.000931         1.930111         1.246686
 O         2.751390         2.691349        -0.093492
 C         3.070351         1.759782        -1.296094
 C         2.670144         0.344074        -1.135691
 H        -0.427826         0.137354         1.071135
 H        -0.412967         1.366259        -0.026443
 H        -0.613840        -0.266128        -0.591992
 H         4.023791        -1.349568         0.204555
 H         2.110545        -0.057542         2.091803
 H         2.517896         2.663563         1.991206
 H         4.080926         2.050054         1.402514
 H         2.269215         2.193206        -2.078096
 H         4.113848         1.961301        -1.669768
 H         2.593484        -0.207826        -2.181792
