19
Iteration:  1731charge 0 multiplicity 1
 C         0.016638         0.515783        -0.015932
 C         1.440536         0.177395         0.048729
 O         1.912834        -1.394318         0.074098
 C         3.101434        -0.524475         0.024581
 C         2.539892         0.513111         1.096747
 C         2.923479         1.906245         1.105576
 O         2.751741         2.595454        -0.034869
 C         3.021843         1.785848        -1.208715
 C         2.422239         0.344975        -1.093223
 H        -0.584816         0.113458         0.713008
 H         0.133695         1.647214        -0.201979
 H        -0.303080         0.161087        -0.955519
 H         4.134717        -0.914542        -0.091824
 H         2.491189         0.094617         2.100717
 H         2.403739         2.573813         1.897333
 H         3.992725         2.079406         1.550717
 H         2.499458         2.311457        -2.013643
 H         4.076470         1.824135        -1.188436
 H         2.173868        -0.191664        -2.022052
