19
Iteration:  4047
 C         0.004851         0.481675         0.016411
 C         1.439150         0.173318         0.083432
 O         1.819663        -1.336887         0.172726
 C         3.092227        -0.494017         0.094264
 C         2.589748         0.475258         1.117593
 C         2.963322         1.968933         1.056251
 O         2.655279         2.616028        -0.151533
 C         3.133138         1.774076        -1.259021
 C         2.480771         0.297378        -1.117786
 H        -0.498883         0.111732         0.856178
 H        -0.131725         1.570737        -0.055282
 H        -0.281086        -0.085891        -0.800237
 H         4.124568        -0.982034        -0.038143
 H         2.505595         0.183781         2.113080
 H         2.299362         2.471646         1.785019
 H         3.967052         1.949093         1.233820
 H         2.856413         2.316329        -2.187085
 H         4.300685         1.657476        -1.261203
 H         2.060253        -0.228524        -1.969320
