19
Iteration:  2512charge 0 multiplicity 1
 C         0.016935         0.336780         0.046505
 C         1.401610         0.160953         0.010402
 O         1.873482        -1.315242         0.032983
 C         3.038197        -0.494667         0.127294
 C         2.390678         0.532428         1.076422
 C         3.007173         1.870392         1.141504
 O         2.794066         2.635183        -0.100314
 C         3.043147         1.833429        -1.231323
 C         2.536410         0.402570        -1.132973
 H        -0.277848        -0.155055         1.055828
 H        -0.087719         1.404910         0.266741
 H        -0.571987        -0.110344        -0.798253
 H         4.162671        -0.979228         0.339815
 H         2.207088         0.105004         2.097288
 H         2.531341         2.541272         1.846290
 H         4.100553         1.917917         1.379328
 H         2.743563         2.356838        -2.084094
 H         4.083103         1.751684        -1.493639
 H         2.460263        -0.102364        -2.083624
