19
Iteration:  4114
 C        -0.121828         0.412770        -0.128560
 C         1.427942         0.099224         0.070318
 O         1.877128        -1.322715         0.178531
 C         3.157526        -0.518347         0.113891
 C         2.452682         0.502047         1.169019
 C         3.041316         1.983319         1.039462
 O         2.877693         2.638221        -0.106573
 C         2.933706         1.782975        -1.292510
 C         2.479300         0.334313        -1.029609
 H        -0.573117         0.208544         0.770239
 H        -0.280333         1.515534        -0.059756
 H        -0.556627        -0.102429        -0.883166
 H         4.186201        -1.056977         0.102980
 H         2.320259         0.207552         2.147312
 H         2.670701         2.664933         1.840081
 H         4.162279         1.879520         1.097562
 H         2.217454         2.325665        -1.949892
 H         4.083744         1.951222        -1.677458
 H         2.491908        -0.249312        -1.931408
