19
Iteration:  1311
 C        -0.068049         0.468799        -0.109279
 C         1.403828         0.128341         0.056612
 O         1.891864        -1.324554         0.052573
 C         3.124552        -0.556232        -0.006436
 C         2.571537         0.498578         1.148827
 C         3.019618         1.991994         1.154739
 O         2.776248         2.641684        -0.043830
 C         3.021062         1.752875        -1.194015
 C         2.396921         0.332445        -1.038140
 H        -0.839937        -0.029701         0.548748
 H        -0.060929         1.447853         0.095639
 H        -0.352141         0.232310        -1.183205
 H         4.215677        -1.019250        -0.137519
 H         2.486541         0.090835         2.184356
 H         2.667844         2.661143         2.041121
 H         4.115130         1.888280         1.427383
 H         2.375483         2.252951        -1.927346
 H         4.089887         1.601400        -1.330233
 H         2.223622        -0.051634        -2.096679
