19
Iteration:  1715charge 0 multiplicity 1
 C        -0.009098         0.501466        -0.111434
 C         1.401885         0.062568         0.042373
 O         1.877082        -1.298364         0.174090
 C         3.150909        -0.476666         0.025383
 C         2.534492         0.374832         1.082610
 C         3.037428         1.880656         1.185130
 O         2.699391         2.629417        -0.104739
 C         2.999409         1.841105        -1.243602
 C         2.491750         0.417075        -1.048371
 H        -0.674409         0.112698         0.803767
 H        -0.152223         1.608758         0.181207
 H        -0.386828         0.163902        -1.153569
 H         4.054084        -1.167466         0.124534
 H         2.328600        -0.132685         2.046950
 H         2.535146         2.418540         1.961120
 H         4.078248         1.946030         1.363694
 H         2.584774         2.412993        -2.101066
 H         4.084971         1.712654        -1.566396
 H         2.287302        -0.034393        -2.044118
