19
Iteration:  2799charge 0 multiplicity 1
 C        -0.008209         0.372466         0.030226
 C         1.464549         0.128113         0.071586
 O         1.870043        -1.274904         0.142147
 C         3.040710        -0.546951        -0.018560
 C         2.515268         0.501962         1.101066
 C         2.992482         1.958031         1.097338
 O         2.655328         2.647893        -0.089255
 C         3.092371         1.808972        -1.203399
 C         2.518020         0.328218        -1.117169
 H        -0.503355         0.330890         1.021930
 H        -0.081489         1.571247        -0.221629
 H        -0.431271        -0.187037        -0.844574
 H         4.064193        -1.066074        -0.028020
 H         2.480172         0.135601         2.145938
 H         2.427215         2.489292         1.827929
 H         4.138476         1.895736         1.157539
 H         2.783509         2.256081        -2.167751
 H         4.270649         1.689368        -1.219756
 H         2.302467        -0.141267        -2.139790
