19
Iteration:  4550charge 0 multiplicity 1
 C        -0.087695         0.367425         0.061510
 C         1.407573         0.146304         0.065511
 O         1.843916        -1.345827         0.183289
 C         3.148256        -0.502273         0.006841
 C         2.513981         0.509239         1.083084
 C         2.925963         1.984487         1.108948
 O         2.836972         2.683920        -0.157521
 C         3.112620         1.757839        -1.290132
 C         2.489517         0.336126        -1.067736
 H        -0.424455        -0.080568         1.001388
 H        -0.379096         1.496129        -0.103341
 H        -0.612067         0.047781        -0.840567
 H         4.079265        -1.155065         0.021585
 H         2.476799         0.045088         2.071127
 H         2.225492         2.561811         1.611254
 H         3.825972         2.119628         1.625910
 H         2.561832         2.256231        -2.074268
 H         4.220054         1.626148        -1.312400
 H         2.259075         0.034590        -2.121015
