19
Iteration:  4861
 C        -0.002143         0.503342        -0.068490
 C         1.434083         0.060059         0.056674
 O         1.890756        -1.267229         0.140495
 C         3.117105        -0.435473         0.065242
 C         2.531419         0.515209         1.125622
 C         3.026236         1.984855         1.082956
 O         2.678349         2.575133        -0.117120
 C         3.015949         1.696282        -1.188030
 C         2.448571         0.286249        -1.031207
 H        -0.446175         0.743389         0.953682
 H         0.048252         1.445334        -0.602949
 H        -0.654472        -0.140238        -0.765649
 H         4.091139        -0.916906        -0.000055
 H         2.231775         0.223623         2.189748
 H         2.590515         2.461726         1.902143
 H         4.305705         1.941518         1.054384
 H         2.523497         2.048153        -2.154325
 H         4.092121         1.819179        -1.590165
 H         2.497958        -0.330343        -1.959762
