19
Iteration:  2377
 C        -0.144434         0.411100        -0.162379
 C         1.373229         0.132333        -0.015404
 O         1.829215        -1.297849         0.141530
 C         3.126487        -0.455667         0.073224
 C         2.621948         0.431663         1.205157
 C         3.134964         1.958997         1.087011
 O         2.671018         2.534698        -0.050740
 C         2.994971         1.840454        -1.196987
 C         2.592090         0.377103        -1.072598
 H        -0.631088         0.127274         0.712741
 H        -0.302315         1.509359         0.001197
 H        -0.542690         0.046278        -1.112939
 H         4.088689        -1.019023         0.112744
 H         2.447751        -0.101810         2.150647
 H         2.641394         2.532130         1.942168
 H         4.205241         1.990515         1.069001
 H         2.468120         2.461164        -1.955980
 H         4.117961         1.795417        -1.377622
 H         2.354823         0.063632        -2.098559
