19
Iteration:  1083
 C        -0.093486         0.505776         0.046739
 C         1.389608         0.056361         0.070414
 O         1.911815        -1.336812         0.035985
 C         3.056962        -0.524144        -0.051462
 C         2.611998         0.458564         1.053000
 C         2.873981         2.002486         1.189731
 O         2.825206         2.600360        -0.080035
 C         3.114084         1.773638        -1.174931
 C         2.451547         0.395779        -1.087971
 H        -0.697940         0.197827         0.914434
 H        -0.049360         1.599777        -0.332862
 H        -0.522970        -0.042139        -0.852095
 H         4.049818        -0.871927        -0.109040
 H         2.504320         0.044175         2.117110
 H         2.218964         2.371376         2.050497
 H         3.834119         2.249620         1.685857
 H         2.654586         2.245519        -2.119532
 H         4.360114         1.650536        -1.170408
 H         2.247611        -0.135640        -2.119449
