19
Iteration:  3645
 C         0.048294         0.432939         0.027673
 C         1.433155         0.203674         0.053973
 O         1.839598        -1.252826         0.136706
 C         3.113635        -0.491143         0.118568
 C         2.493585         0.490763         1.058919
 C         3.027461         1.941085         1.084366
 O         2.667297         2.594031        -0.167385
 C         3.052432         1.756108        -1.247933
 C         2.498593         0.314920        -1.079199
 H        -0.195841        -0.246293         0.796404
 H        -0.227972         1.461445         0.330148
 H        -0.275161         0.133848        -0.899064
 H         3.852695        -1.211946         0.249134
 H         2.446484         0.221618         2.140277
 H         2.352793         2.577515         1.698719
 H         4.105368         1.829586         1.189406
 H         2.701626         2.293176        -2.132795
 H         4.121302         1.619848        -1.266004
 H         2.243315        -0.362683        -1.906553
