19
Iteration:  4055charge 0 multiplicity 1
 C        -0.003971         0.463576        -0.002081
 C         1.412991         0.174163         0.110598
 O         1.852547        -1.259028         0.166312
 C         3.111159        -0.539953         0.046272
 C         2.536624         0.483930         1.086448
 C         3.009511         1.950612         1.064655
 O         2.648961         2.573958        -0.166152
 C         3.091951         1.743046        -1.279299
 C         2.506006         0.378546        -1.052010
 H        -0.466491         0.065715         0.925965
 H        -0.119181         1.472463        -0.113526
 H        -0.581712        -0.025710        -0.812181
 H         4.007877        -1.106274         0.186922
 H         2.455646         0.046520         2.159248
 H         2.399453         2.458144         1.891475
 H         4.084998         2.161170         1.351563
 H         2.827131         2.228119        -2.229678
 H         4.278928         1.673309        -1.231189
 H         2.357848        -0.306697        -1.920556
