19
Iteration:  4740charge 0 multiplicity 1
 C        -0.130394         0.371503         0.117436
 C         1.398527         0.190718         0.040910
 O         1.868760        -1.275112         0.070826
 C         3.097541        -0.537871         0.067378
 C         2.498118         0.546861         1.071414
 C         2.942622         2.048797         1.128687
 O         2.834374         2.600609        -0.202015
 C         3.112748         1.740005        -1.209442
 C         2.564034         0.265518        -1.070800
 H        -0.242174        -0.266149         1.016506
 H        -0.306473         1.527406         0.257189
 H        -0.631758         0.062424        -0.848812
 H         3.999190        -1.165489         0.177347
 H         2.145497         0.198673         2.082870
 H         2.199297         2.563489         1.634679
 H         3.930392         2.164947         1.584289
 H         2.519078         2.173910        -2.094328
 H         4.107434         1.770803        -1.498016
 H         2.481244        -0.192698        -2.056391
