19
Iteration:  2483
 C        -0.171925         0.391237         0.018057
 C         1.361692         0.057854         0.123648
 O         1.884499        -1.307569         0.046417
 C         3.168027        -0.519414        -0.006654
 C         2.523147         0.492515         1.132784
 C         2.892501         1.943391         1.193364
 O         2.872553         2.662925        -0.130244
 C         3.071443         1.829942        -1.264755
 C         2.549212         0.365941        -1.088788
 H        -0.547118        -0.082134         0.875548
 H        -0.217786         1.512588         0.029829
 H        -0.821278         0.081486        -0.762702
 H         4.045281        -1.028799        -0.068352
 H         2.563674         0.029758         2.097137
 H         2.199372         2.546957         1.781294
 H         3.843559         2.071078         1.816023
 H         2.709021         2.447887        -2.172735
 H         4.201718         1.621482        -1.512917
 H         2.431124        -0.073523        -2.127631
