19
Iteration:  2444charge 0 multiplicity 1
 C        -0.086775         0.399136        -0.002017
 C         1.412153         0.118903        -0.006113
 O         1.915612        -1.278572         0.068893
 C         3.116644        -0.492113        -0.021519
 C         2.503279         0.489768         1.112053
 C         2.923161         1.988011         1.215581
 O         2.874819         2.637767        -0.055465
 C         2.988395         1.727665        -1.220675
 C         2.517154         0.346337        -1.136799
 H        -0.574820         0.295137         1.005766
 H        -0.237391         1.492967         0.026001
 H        -0.598712        -0.162584        -0.816121
 H         4.170497        -1.035779         0.131065
 H         2.331947        -0.012048         2.104532
 H         2.217161         2.551448         1.895104
 H         3.938860         2.014258         1.637351
 H         2.511711         2.183191        -2.071676
 H         4.040874         1.763185        -1.471757
 H         2.316953        -0.217484        -2.036820
