19
Iteration:  2177charge 0 multiplicity 1
 C         0.067569         0.528903        -0.070659
 C         1.495215         0.116328         0.001177
 O         1.880341        -1.343965         0.080602
 C         3.110436        -0.510702         0.137212
 C         2.448559         0.427782         1.127371
 C         2.991949         1.852983         1.112383
 O         2.759430         2.607193        -0.111445
 C         2.909069         1.849331        -1.225553
 C         2.545538         0.397605        -1.011150
 H        -0.475192         0.145908         0.737746
 H         0.092654         1.623148        -0.182518
 H        -0.477294         0.270233        -0.936287
 H         4.034001        -0.966364         0.079289
 H         2.091284         0.078400         2.093043
 H         2.460430         2.391454         1.962518
 H         4.109126         1.913013         1.429829
 H         2.123771         2.194529        -1.945740
 H         3.888365         1.982891        -1.738776
 H         2.345838        -0.244795        -1.945242
