19
Iteration:   225
 C        -0.107107         0.488299         0.022660
 C         1.404437         0.090287         0.037633
 O         1.906484        -1.344921         0.119236
 C         3.102997        -0.452054        -0.027159
 C         2.502637         0.427895         1.114868
 C         2.971283         1.936172         1.215897
 O         2.806008         2.607963        -0.075371
 C         3.126294         1.810177        -1.278029
 C         2.390158         0.388425        -1.131935
 H        -0.598547         0.415342         1.020617
 H        -0.003537         1.530825        -0.380150
 H        -0.467616        -0.101081        -0.680960
 H         4.087450        -0.878481        -0.079166
 H         2.517647        -0.176837         2.037470
 H         2.342494         2.411204         1.916411
 H         3.998330         1.921674         1.594924
 H         2.865826         2.416019        -2.137791
 H         4.195473         1.538154        -1.424356
 H         2.217847        -0.006823        -2.106653
