19
Iteration:  4932
 C        -0.065715         0.431439         0.118164
 C         1.411493         0.157411        -0.010764
 O         1.959295        -1.369265         0.094677
 C         3.046156        -0.444289         0.160819
 C         2.425267         0.539327         1.106781
 C         2.980275         1.945904         1.050899
 O         2.785736         2.582020        -0.196266
 C         3.116097         1.755011        -1.269588
 C         2.496302         0.344504        -1.052163
 H        -0.528827        -0.059762         0.953061
 H        -0.170376         1.615735         0.308573
 H        -0.625512         0.265078        -0.813269
 H         4.081036        -0.826606         0.054177
 H         2.207116         0.228954         2.112569
 H         2.229966         2.582010         1.675941
 H         4.063699         1.926417         1.448583
 H         2.773017         2.299583        -2.140191
 H         4.159016         1.632125        -1.411449
 H         2.221243        -0.273226        -1.908762
