19
Iteration:  3649charge 0 multiplicity 1
 C        -0.007457         0.416561         0.050081
 C         1.466457         0.195939         0.005994
 O         1.841507        -1.246025         0.147437
 C         3.127349        -0.495044         0.139184
 C         2.494344         0.461853         1.080904
 C         3.010787         1.960893         1.051127
 O         2.672162         2.597738        -0.153408
 C         3.070312         1.762683        -1.256165
 C         2.498523         0.332532        -1.095386
 H        -0.231876        -0.231096         0.933451
 H        -0.125339         1.512954         0.324692
 H        -0.450015         0.153195        -0.966366
 H         3.792131        -1.373957         0.345827
 H         2.427446         0.117884         2.142914
 H         2.444613         2.571508         1.722304
 H         4.087532         1.894977         1.214203
 H         2.717159         2.275793        -2.125158
 H         4.164465         1.664339        -1.350945
 H         2.272493        -0.282206        -1.949331
