19
Iteration:  1368charge 0 multiplicity 1
 C        -0.021083         0.433920         0.021395
 C         1.457195         0.154893        -0.038403
 O         1.829119        -1.333274         0.007080
 C         3.039982        -0.532535         0.131680
 C         2.496541         0.470377         1.086635
 C         3.063848         1.918674         1.132688
 O         2.743971         2.666423        -0.047876
 C         2.990486         1.803345        -1.205248
 C         2.581939         0.342871        -1.079749
 H        -0.410895         0.047605         0.900845
 H        -0.302332         1.482830        -0.090046
 H        -0.453467        -0.036145        -0.807164
 H         3.952633        -1.090038         0.322420
 H         2.240956         0.180784         2.088645
 H         2.590448         2.573013         1.944705
 H         4.175193         1.880310         1.299715
 H         2.345803         2.254423        -1.953516
 H         3.955584         1.965595        -1.672960
 H         2.674034        -0.137528        -2.061222
