19
Iteration:   242
 C        -0.092876         0.489606        -0.040027
 C         1.355510         0.138095         0.102186
 O         1.973650        -1.292548         0.069528
 C         3.136750        -0.417572        -0.083847
 C         2.541698         0.521770         1.080640
 C         2.979573         1.884348         1.208913
 O         2.835907         2.555425        -0.057221
 C         3.034682         1.674679        -1.164062
 C         2.394799         0.382379        -1.080073
 H        -0.656212         0.283405         0.866812
 H        -0.228034         1.545752        -0.289927
 H        -0.793057         0.044282        -0.997406
 H         4.142594        -1.030170        -0.199538
 H         2.316754         0.047173         2.073411
 H         2.451877         2.683963         1.871655
 H         4.061023         1.999161         1.472193
 H         2.552495         2.281436        -2.033401
 H         4.129621         1.599133        -1.280136
 H         2.120911        -0.192098        -2.054083
