19
Iteration:  3025charge 0 multiplicity 1
 C         0.049695         0.518358         0.038158
 C         1.453733         0.094889        -0.029360
 O         1.886478        -1.366100         0.183483
 C         3.122796        -0.506648         0.082226
 C         2.524908         0.445635         1.099500
 C         2.906998         1.913542         1.097384
 O         2.729317         2.637950        -0.159196
 C         2.984724         1.805992        -1.271625
 C         2.532295         0.346488        -1.091358
 H        -0.357284         0.119043         0.975517
 H         0.125732         1.698270         0.039246
 H        -0.632880         0.207889        -0.767953
 H         4.128333        -0.814313         0.261532
 H         2.078205         0.074315         2.059315
 H         2.395252         2.427769         2.041118
 H         3.927751         1.993716         1.537678
 H         2.626354         2.258485        -2.204518
 H         4.077545         1.808163        -1.491677
 H         2.123360         0.002252        -2.033454
