19
Iteration:  1139
 C        -0.100352         0.490188        -0.011325
 C         1.367111         0.084110        -0.081025
 O         1.865167        -1.337750        -0.003408
 C         3.127943        -0.496192         0.118474
 C         2.403365         0.473012         1.102972
 C         3.189598         1.949553         1.126489
 O         2.724811         2.612895        -0.038488
 C         2.990690         1.831273        -1.193042
 C         2.601322         0.356502        -1.014648
 H        -0.437605        -0.142538         0.758732
 H        -0.454102         1.586006         0.270362
 H        -0.566972         0.110152        -0.898549
 H         4.061453        -0.968630         0.196915
 H         2.138091         0.099192         2.139312
 H         2.818366         2.450921         2.027834
 H         4.271680         1.823545         1.039102
 H         2.366887         2.148821        -2.057821
 H         4.070957         2.060626        -1.546492
 H         2.579463        -0.281228        -1.927368
