19
Iteration:  4276charge 0 multiplicity 1
 C        -0.026428         0.492616        -0.082839
 C         1.435539         0.135301         0.005074
 O         1.893890        -1.350817         0.195695
 C         3.066077        -0.452906         0.156638
 C         2.510420         0.453482         1.101954
 C         3.076971         1.912246         1.091065
 O         2.710971         2.573604        -0.119970
 C         2.974377         1.807471        -1.313391
 C         2.533283         0.335552        -1.022489
 H        -0.632486         0.337129         0.845768
 H        -0.091515         1.695026        -0.058471
 H        -0.418236         0.042117        -1.011043
 H         4.146614        -0.849974         0.109373
 H         2.323470        -0.100336         2.072535
 H         2.552372         2.566109         1.946706
 H         4.133798         2.035790         1.132532
 H         2.246196         2.274589        -2.077433
 H         4.135659         1.957770        -1.520291
 H         2.328559        -0.184415        -1.971495
