19
Iteration:  1598
 C        -0.100615         0.411969         0.094226
 C         1.378266         0.133319         0.022949
 O         1.856564        -1.312143         0.045758
 C         3.147934        -0.503272        -0.009310
 C         2.600524         0.431568         1.126496
 C         2.827141         1.907372         1.137509
 O         2.833441         2.601951        -0.077938
 C         3.154473         1.845135        -1.259268
 C         2.506473         0.422849        -1.091339
 H        -0.540736         0.378349         1.015040
 H        -0.256804         1.576439        -0.174423
 H        -0.651705        -0.122253        -0.596916
 H         4.107600        -1.153881         0.033412
 H         2.308862         0.048276         2.067512
 H         2.072789         2.227611         1.949679
 H         3.801530         2.123579         1.651658
 H         2.675556         2.263611        -2.160308
 H         4.289742         1.853476        -1.567519
 H         2.233878        -0.070322        -2.052981
