19
Iteration:  4831charge 0 multiplicity 1
 C        -0.026821         0.461108        -0.071632
 C         1.444667         0.180461         0.049337
 O         1.901506        -1.307197         0.214012
 C         3.114069        -0.588436         0.156871
 C         2.467204         0.474648         1.143773
 C         3.081365         1.884931         1.062851
 O         2.723987         2.677799        -0.123511
 C         2.993053         1.838946        -1.342369
 C         2.556115         0.322442        -1.055507
 H        -0.581505         0.249237         0.920739
 H        -0.266581         1.432487        -0.477233
 H        -0.652756        -0.120648        -0.863041
 H         4.055189        -1.121978         0.112045
 H         1.938438         0.193565         2.128621
 H         2.682462         2.536538         1.906090
 H         4.073669         1.748367         1.119987
 H         2.122106         2.212185        -2.040634
 H         3.912978         2.048952        -1.775236
 H         2.404955        -0.444494        -1.884836
