19
Iteration:  2726charge 0 multiplicity 1
 C        -0.002459         0.380661        -0.006856
 C         1.415751         0.091700        -0.096985
 O         1.889259        -1.284562         0.079310
 C         3.087710        -0.452508         0.191007
 C         2.482059         0.490561         1.104708
 C         3.009550         1.927342         1.125742
 O         2.851015         2.685393        -0.076313
 C         2.886095         1.786209        -1.264397
 C         2.500135         0.321153        -1.056050
 H        -0.359457         0.010167         0.970006
 H         0.029660         1.443301         0.083728
 H        -0.535360         0.001337        -0.911764
 H         4.030948        -1.163166         0.242475
 H         2.189248         0.230221         2.121943
 H         2.641658         2.450423         2.058579
 H         4.096445         1.842598         1.180928
 H         2.271638         2.171066        -2.135561
 H         3.904903         1.902344        -1.740093
 H         2.586012        -0.288577        -1.976364
