19
Iteration:  1419
 C        -0.173961         0.424873         0.011844
 C         1.389102         0.177124         0.051051
 O         1.884124        -1.356376         0.133163
 C         3.127119        -0.483874        -0.053519
 C         2.586080         0.464039         1.028901
 C         2.945987         1.920077         1.184856
 O         2.764362         2.611328        -0.068127
 C         3.160837         1.840286        -1.212070
 C         2.507495         0.359870        -1.107943
 H        -0.544417         0.248866         1.148239
 H        -0.447007         1.432704        -0.204628
 H        -0.870903        -0.175651        -0.751925
 H         4.099904        -1.130516        -0.079203
 H         2.471034         0.015490         2.053883
 H         2.184171         2.378981         1.740812
 H         3.912956         2.087479         1.623280
 H         3.086857         2.485637        -2.112675
 H         4.295906         1.733057        -1.286081
 H         2.172083        -0.034845        -2.101907
