19
Iteration:    93
 C         0.050335         0.453471         0.036657
 C         1.448991         0.216843         0.016280
 O         1.825228        -1.287077         0.064812
 C         3.095562        -0.470594         0.130074
 C         2.475370         0.510349         1.119318
 C         3.032420         1.808375         1.142335
 O         2.751807         2.490443        -0.044564
 C         3.001757         1.836010        -1.334015
 C         2.534423         0.415333        -1.111238
 H        -0.487034        -0.113868         0.827148
 H        -0.332019         1.480285         0.043614
 H        -0.392343         0.011256        -0.933284
 H         4.071739        -1.051115         0.200317
 H         2.053446        -0.002166         2.084250
 H         2.654377         2.515291         1.895407
 H         4.134052         1.867565         1.262463
 H         2.325160         2.457800        -1.973163
 H         4.007779         2.030741        -1.710885
 H         2.313280        -0.138808        -2.102558
