19
Iteration:  2169
 C         0.032774         0.555095        -0.086552
 C         1.411053         0.092922        -0.002339
 O         1.900361        -1.295835         0.073688
 C         3.163742        -0.486996         0.054958
 C         2.489086         0.438134         1.110474
 C         2.980055         1.928210         1.188553
 O         2.747129         2.620009        -0.068866
 C         2.932173         1.752878        -1.225013
 C         2.539054         0.319302        -1.028093
 H        -0.517388         0.243625         0.800859
 H        -0.125100         1.747747        -0.091141
 H        -0.421514         0.130295        -1.032288
 H         4.138365        -1.113461         0.265430
 H         2.318783        -0.036398         2.080111
 H         2.510456         2.546897         1.845620
 H         4.047962         1.772962         1.308509
 H         2.157988         2.020122        -1.870468
 H         3.943611         1.958597        -1.606127
 H         2.260367        -0.102372        -2.012180
