19
Iteration:  3753
 C        -0.005075         0.376023        -0.063700
 C         1.394911         0.160535         0.030875
 O         1.846072        -1.377240         0.194842
 C         3.032615        -0.461084         0.120050
 C         2.479769         0.473548         1.140579
 C         3.075363         1.990457         1.089315
 O         2.844555         2.642432        -0.118808
 C         2.973259         1.779023        -1.291199
 C         2.503339         0.356449        -1.094126
 H        -0.483025         0.044692         0.855051
 H        -0.255968         1.486175        -0.358148
 H        -0.370434        -0.331383        -0.816955
 H         4.173492        -0.635082         0.227349
 H         2.290102         0.114641         2.127482
 H         2.751100         2.591773         1.938342
 H         4.086171         2.018645         1.339838
 H         2.298528         2.281060        -2.038815
 H         3.991811         1.796171        -1.728077
 H         2.264201        -0.161010        -2.032522
