19
Iteration:  4630
 C        -0.030046         0.471936        -0.048597
 C         1.415152         0.133563        -0.033978
 O         1.845579        -1.323805         0.138814
 C         3.149142        -0.550517         0.191748
 C         2.529449         0.525752         1.127048
 C         3.070127         1.941007         1.066071
 O         2.723265         2.636671        -0.109478
 C         2.927752         1.778150        -1.300506
 C         2.562549         0.317583        -0.999949
 H        -0.602932         0.166105         0.820296
 H        -0.287743         1.506635         0.026168
 H        -0.484490        -0.052072        -0.864136
 H         4.193468        -0.965710         0.166412
 H         2.108571         0.195773         2.079440
 H         2.739660         2.519905         1.845333
 H         4.186612         1.856054         1.111501
 H         2.405045         2.222158        -2.184449
 H         4.000948         1.874029        -1.638554
 H         2.394857        -0.189049        -1.941855
