19
Iteration:  1012charge 0 multiplicity 1
 C        -0.110481         0.395288        -0.081773
 C         1.366783         0.164047         0.039599
 O         1.844489        -1.318459         0.067426
 C         3.099037        -0.474175         0.096436
 C         2.512021         0.439972         1.117356
 C         3.124222         1.901311         1.088121
 O         2.776318         2.655392        -0.057679
 C         3.020934         1.843559        -1.209714
 C         2.519599         0.393809        -1.029244
 H        -0.624958        -0.238767         0.735855
 H        -0.418034         1.459389        -0.056507
 H        -0.383969         0.002553        -1.064156
 H         3.941023        -1.190783         0.043051
 H         2.422465         0.003311         2.077807
 H         2.713086         2.410333         1.940094
 H         4.200672         1.842194         1.308552
 H         2.431121         2.085750        -2.048611
 H         4.101431         1.907666        -1.487539
 H         2.542769        -0.081994        -1.943188
