19
Iteration:   288
 C        -0.061882         0.420386         0.049477
 C         1.405433         0.179696        -0.033735
 O         1.771780        -1.297517         0.028114
 C         3.124358        -0.613828         0.138217
 C         2.435322         0.496984         1.072076
 C         3.092938         1.894592         1.063983
 O         2.793928         2.634128        -0.055663
 C         2.962079         1.843543        -1.203024
 C         2.694284         0.397619        -1.048379
 H        -0.523673        -0.260298         0.788999
 H        -0.457976         1.357046         0.190867
 H        -0.569834         0.114768        -0.915323
 H         4.122835        -1.174702         0.188467
 H         2.298739         0.120530         2.101753
 H         2.783726         2.532606         1.913790
 H         4.197312         1.852262         1.125431
 H         2.096332         2.235245        -1.857084
 H         3.892884         2.117995        -1.669121
 H         2.524986        -0.156625        -1.982933
