19
Iteration:  2572charge 0 multiplicity 1
 C         0.049782         0.427057        -0.143438
 C         1.458021         0.099693         0.095160
 O         1.811859        -1.336043         0.183082
 C         3.147321        -0.542847         0.027609
 C         2.520610         0.376608         1.130487
 C         3.062502         1.935071         1.157053
 O         2.711384         2.660992        -0.123470
 C         2.961986         1.860769        -1.215866
 C         2.447780         0.433940        -1.073169
 H        -0.570593         0.212841         0.666775
 H         0.210358         1.513779        -0.323596
 H        -0.387885         0.070280        -1.056945
 H         4.141328        -0.921448         0.000463
 H         2.321751        -0.028417         2.115435
 H         2.613877         2.361613         2.103653
 H         4.186816         2.097059         1.162815
 H         2.250310         2.224439        -2.040332
 H         4.031483         1.873689        -1.355683
 H         2.295910        -0.137887        -2.047025
