19
Iteration:   198charge 0 multiplicity 1
 C        -0.025868         0.418863         0.132623
 C         1.447058         0.163084        -0.044422
 O         1.783858        -1.239064         0.016122
 C         3.081882        -0.609775         0.049049
 C         2.480256         0.464416         1.055053
 C         2.960176         1.915848         1.117754
 O         2.786820         2.685551        -0.077950
 C         3.050859         1.806579        -1.219586
 C         2.625815         0.332085        -1.017885
 H        -0.228843         0.185869         1.163779
 H        -0.255742         1.439095        -0.231900
 H        -0.613984        -0.290797        -0.645581
 H         4.051087        -1.265443         0.014893
 H         2.322851         0.015683         2.065328
 H         2.309091         2.495223         1.912470
 H         4.034220         1.934509         1.476821
 H         2.391736         2.237885        -2.093281
 H         4.134320         1.816808        -1.548208
 H         2.527204        -0.050124        -2.090145
