19
Iteration:   842charge 0 multiplicity 1
 C        -0.169078         0.379486        -0.036167
 C         1.355764         0.162941         0.008030
 O         1.877038        -1.301689         0.086869
 C         3.133420        -0.500708         0.088742
 C         2.477043         0.505552         1.088283
 C         3.124077         1.857752         1.092261
 O         2.804675         2.607170        -0.067873
 C         2.995961         1.860653        -1.191904
 C         2.583940         0.416355        -1.089680
 H        -0.624380        -0.164266         0.830864
 H        -0.317579         1.359284         0.152608
 H        -0.736896         0.002911        -0.944213
 H         4.037522        -0.978426         0.362386
 H         2.340631         0.167195         2.120997
 H         2.586801         2.400213         1.863978
 H         4.148613         1.674449         1.352617
 H         2.270579         2.309686        -2.034590
 H         4.017954         1.887782        -1.619735
 H         2.604836        -0.177031        -1.996934
