19
Iteration:  4658
 C         0.025268         0.479969        -0.128653
 C         1.432471         0.118983         0.113757
 O         1.827105        -1.271675         0.213193
 C         3.131904        -0.539511         0.078071
 C         2.596092         0.535077         1.114832
 C         3.042485         1.938013         1.118735
 O         2.666891         2.511605        -0.104342
 C         2.946810         1.806880        -1.317205
 C         2.524054         0.362777        -1.046865
 H        -0.743411         0.329419         0.669267
 H         0.022745         1.618245        -0.402307
 H        -0.372454        -0.214131        -0.890980
 H         4.068653        -1.109168         0.071444
 H         2.406291         0.118647         2.108477
 H         2.648122         2.605866         1.977122
 H         4.124457         1.896234         1.310667
 H         2.453744         2.281577        -2.148577
 H         4.017413         1.887487        -1.679331
 H         2.323319        -0.132077        -2.033623
