19
Iteration:  4172charge 0 multiplicity 1
 C        -0.130485         0.371135         0.060387
 C         1.378436         0.125196         0.062790
 O         1.857327        -1.315420         0.142041
 C         3.097369        -0.514895         0.114204
 C         2.502927         0.511039         1.095975
 C         3.009461         1.970263         1.067394
 O         2.824392         2.676401        -0.161301
 C         3.108597         1.784584        -1.253495
 C         2.506020         0.361227        -1.089605
 H        -0.634075        -0.056283         0.983092
 H        -0.210759         1.430167        -0.152892
 H        -0.654594        -0.070201        -0.851073
 H         4.081364        -0.934932         0.225366
 H         2.167564         0.025279         2.038385
 H         2.462297         2.427692         1.868013
 H         4.098343         1.971574         1.365201
 H         2.547299         2.130256        -2.142067
 H         4.211184         1.663124        -1.717364
 H         2.602583        -0.110235        -2.090178
