19
Iteration:  1198
 C        -0.064972         0.469737        -0.147837
 C         1.389846         0.097005         0.006637
 O         1.861586        -1.204948         0.086357
 C         3.109436        -0.524141         0.005790
 C         2.635585         0.497781         1.074866
 C         3.060194         1.942348         1.219592
 O         2.784418         2.581220         0.001839
 C         2.943885         1.757454        -1.190652
 C         2.452495         0.312650        -1.087916
 H        -0.473717        -0.017751         0.757475
 H        -0.318554         1.439722        -0.192478
 H        -0.548672        -0.055377        -0.958754
 H         4.053408        -1.225937         0.106059
 H         2.700621        -0.008784         2.033956
 H         2.435038         2.479979         1.887817
 H         4.028687         2.190879         1.591940
 H         2.387832         2.363200        -1.900743
 H         4.121065         1.805702        -1.340648
 H         2.207212        -0.074008        -2.052676
