19
Iteration:  4670charge 0 multiplicity 1
 C        -0.063452         0.515337        -0.125017
 C         1.475624         0.225122         0.030797
 O         1.921154        -1.320391         0.219344
 C         3.124196        -0.533562         0.091773
 C         2.573628         0.430614         1.150099
 C         3.090862         1.933974         1.084694
 O         2.663771         2.612145        -0.111171
 C         2.966544         1.752004        -1.249923
 C         2.460178         0.311735        -1.070305
 H        -0.591800         0.391860         0.843734
 H        -0.223241         1.643990        -0.607551
 H        -0.373363        -0.060769        -1.003858
 H         4.100398        -1.082742         0.034397
 H         2.369104         0.045356         2.139261
 H         2.412014         2.436150         1.827318
 H         4.147882         2.212072         1.285893
 H         2.379518         2.227511        -2.000613
 H         4.053591         1.774299        -1.380802
 H         2.083499        -0.330296        -1.899964
