19
Iteration:   741
 C        -0.138871         0.487690         0.101465
 C         1.416618         0.121297        -0.020773
 O         1.909529        -1.322404         0.009386
 C         3.121855        -0.465218         0.027652
 C         2.507292         0.465239         1.086268
 C         2.953735         1.902692         1.191868
 O         2.724302         2.580873        -0.114754
 C         3.136951         1.847501        -1.214465
 C         2.527431         0.347379        -1.076133
 H        -0.477944         0.299951         1.141920
 H        -0.146829         1.527448        -0.200174
 H        -0.710937        -0.151194        -0.576904
 H         4.105947        -0.876914         0.071520
 H         2.350160         0.008747         2.121958
 H         2.509678         2.457537         2.030146
 H         4.046699         1.798146         1.300731
 H         2.708920         2.176136        -2.255336
 H         4.223540         1.828636        -1.200934
 H         2.194285        -0.132979        -1.995202
