19
Iteration:  4181charge 0 multiplicity 1
 C        -0.111307         0.362611         0.073906
 C         1.376518         0.081565        -0.054286
 O         1.874497        -1.301024         0.086850
 C         3.102359        -0.498446         0.172432
 C         2.507720         0.481458         1.118910
 C         3.018456         1.977438         1.035386
 O         2.813106         2.651523        -0.161126
 C         3.061738         1.782137        -1.280587
 C         2.508272         0.355019        -1.048783
 H        -0.444109         0.219196         1.054070
 H        -0.240032         1.475173         0.154671
 H        -0.725882         0.017079        -0.675273
 H         4.005375        -1.192256         0.308755
 H         2.113688         0.200521         2.060128
 H         2.509998         2.720049         1.701766
 H         4.114177         2.162505         1.476465
 H         2.738648         2.521667        -2.048474
 H         4.218734         1.592810        -1.207150
 H         2.389305        -0.278314        -1.940554
