19
Iteration:  3132
 C        -0.020554         0.341808        -0.006895
 C         1.383475         0.141154         0.134213
 O         1.912449        -1.221929         0.128020
 C         3.112238        -0.463923         0.068997
 C         2.396335         0.455953         1.120147
 C         3.012229         1.938385         1.102043
 O         2.846267         2.608708        -0.158791
 C         3.017470         1.812434        -1.325883
 C         2.481149         0.353986        -1.038244
 H        -0.519685         0.223505         0.988842
 H        -0.222167         1.428499        -0.300656
 H        -0.492585        -0.303152        -0.786443
 H         4.112553        -1.111040         0.176846
 H         2.339918         0.023714         2.170851
 H         2.443329         2.489542         1.879437
 H         4.093864         1.714729         1.299567
 H         2.368388         2.189254        -2.045657
 H         4.084930         1.841681        -1.618947
 H         2.312676        -0.087184        -2.015686
