19
Iteration:   416
 C        -0.043496         0.452619         0.080078
 C         1.371385         0.102619         0.021133
 O         1.902191        -1.356216         0.006639
 C         3.043598        -0.412128         0.024812
 C         2.427169         0.458121         1.047853
 C         3.016468         1.924439         1.129193
 O         2.788584         2.617576        -0.023325
 C         3.073455         1.809233        -1.256226
 C         2.505280         0.341081        -1.046434
 H        -0.420139         0.313894         1.088645
 H         0.094025         1.468165        -0.175439
 H        -0.669647        -0.115601        -0.734687
 H         4.020823        -0.959610         0.073139
 H         2.365301         0.062854         2.059230
 H         2.791813         2.570957         2.060831
 H         4.122686         1.955989         1.179859
 H         2.569418         2.382832        -2.015115
 H         4.222448         1.859975        -1.385668
 H         2.365700        -0.285270        -1.983125
