19
Iteration:  2681
 C        -0.030280         0.317043         0.014429
 C         1.416059         0.123245         0.058188
 O         1.867562        -1.205420         0.101606
 C         3.115753        -0.461451         0.043081
 C         2.492769         0.503770         1.063625
 C         3.026432         1.955643         1.194790
 O         2.778853         2.590240        -0.150761
 C         3.062361         1.704197        -1.232330
 C         2.415730         0.444091        -1.095380
 H        -0.541930        -0.226745         0.807655
 H        -0.480933         1.340360         0.238986
 H        -0.344347        -0.057138        -0.984530
 H         4.207458        -1.062657         0.168896
 H         2.442426         0.009362         2.041827
 H         2.269965         2.420524         1.867805
 H         4.077438         2.007010         1.444627
 H         2.935931         2.401721        -2.172077
 H         4.201270         1.569069        -1.175876
 H         2.148531        -0.041208        -2.102292
