19
Iteration:  2163
 C        -0.041661         0.578346        -0.107493
 C         1.388561         0.105162         0.021343
 O         1.901006        -1.290852         0.072958
 C         3.205275        -0.500827         0.026957
 C         2.513984         0.485004         1.097683
 C         2.975583         1.952834         1.207255
 O         2.736207         2.614712        -0.021318
 C         2.936951         1.697374        -1.227206
 C         2.546229         0.284332        -1.073664
 H        -0.627463         0.267681         0.821821
 H        -0.075104         1.595328        -0.047033
 H        -0.415625         0.026498        -0.977129
 H         4.092443        -1.089889         0.230335
 H         2.535644        -0.118336         2.042435
 H         2.519887         2.699224         2.020434
 H         4.103481         1.883360         1.382828
 H         2.270403         2.202621        -2.060558
 H         3.973141         1.822577        -1.602276
 H         2.374083        -0.148041        -2.065979
