19
Iteration:  2933
 C        -0.152858         0.345150        -0.041128
 C         1.395523         0.090589        -0.013065
 O         1.883495        -1.284356         0.105761
 C         3.111975        -0.484093         0.150298
 C         2.474441         0.464946         1.164837
 C         3.123621         1.925918         1.100394
 O         2.831033         2.695317        -0.113688
 C         2.937978         1.861938        -1.273921
 C         2.577023         0.334450        -1.059239
 H        -0.619386         0.038394         1.032639
 H        -0.412782         1.405465        -0.036354
 H        -0.955049        -0.212404        -0.758127
 H         4.081759        -1.100104        -0.047339
 H         2.114979         0.131391         2.120178
 H         2.703705         2.458476         1.894005
 H         4.283895         1.999799         1.241620
 H         2.508091         2.165329        -2.174889
 H         4.025330         1.881991        -1.604297
 H         2.474934        -0.255295        -1.969662
