19
Iteration:  2035
 C        -0.130272         0.445764        -0.127358
 C         1.359105         0.166543         0.079297
 O         1.940783        -1.332745         0.108586
 C         3.122256        -0.535320         0.007481
 C         2.571030         0.449229         1.095717
 C         2.994018         1.954035         1.183348
 O         2.912064         2.682983        -0.039837
 C         2.931011         1.742296        -1.266215
 C         2.486745         0.354972        -0.995262
 H        -0.763583        -0.213038         0.495568
 H        -0.262184         1.623452        -0.254003
 H        -0.299364         0.180159        -1.194660
 H         4.174789        -1.068247         0.044429
 H         2.382412         0.034837         2.094136
 H         2.293092         2.525189         1.761056
 H         3.923249         2.061929         1.768633
 H         2.065565         2.129340        -1.816636
 H         3.920379         1.877946        -1.792802
 H         2.170042        -0.134830        -2.015321
