19
Iteration:  4578charge 0 multiplicity 1
 C        -0.043024         0.348658         0.039105
 C         1.413267         0.161885         0.043056
 O         1.851125        -1.255505         0.142201
 C         3.140536        -0.472734         0.056525
 C         2.518646         0.519057         1.118748
 C         2.959191         1.983887         1.093436
 O         2.823939         2.592561        -0.157947
 C         3.065227         1.719029        -1.258484
 C         2.475026         0.355617        -1.098886
 H        -0.523452        -0.149983         0.914211
 H        -0.365314         1.346390         0.236081
 H        -0.498848         0.062436        -0.946267
 H         4.024858        -1.051361         0.195216
 H         2.397133         0.019364         2.103468
 H         2.146497         2.604176         1.663700
 H         4.011085         2.110359         1.594498
 H         2.558951         2.260391        -2.086358
 H         4.180765         1.599057        -1.357737
 H         2.171362        -0.026245        -2.081693
