19
Iteration:  4569
 C        -0.098978         0.370714         0.077566
 C         1.443648         0.184169         0.057150
 O         1.887529        -1.291979         0.149086
 C         3.021126        -0.541961         0.057499
 C         2.575435         0.520249         1.083965
 C         2.915364         2.009722         1.131088
 O         2.845376         2.591898        -0.155218
 C         3.092037         1.763953        -1.280460
 C         2.484684         0.341542        -1.105299
 H        -0.459082        -0.412787         0.801258
 H        -0.291298         1.475466        -0.019441
 H        -0.467042        -0.039248        -0.970483
 H         4.007027        -0.909148         0.070676
 H         2.347407         0.101936         2.081487
 H         2.161908         2.547441         1.924741
 H         4.009830         2.406202         1.547511
 H         2.691392         2.273149        -2.170237
 H         4.154557         1.724276        -1.454926
 H         2.168851        -0.196295        -2.061841
