19
Iteration:  2720
 C        -0.079376         0.389928         0.011611
 C         1.413650         0.040959        -0.018287
 O         1.886395        -1.307794         0.077153
 C         3.108476        -0.498645         0.141134
 C         2.469831         0.532371         1.070260
 C         3.027010         1.936410         1.126505
 O         2.829560         2.690133        -0.089839
 C         2.943391         1.814283        -1.250786
 C         2.543405         0.351465        -1.062798
 H        -0.496109        -0.105327         0.896340
 H        -0.074986         1.537942         0.075768
 H        -0.521335        -0.008416        -0.885712
 H         3.911245        -1.125506         0.357439
 H         2.188465         0.133886         2.072116
 H         2.700407         2.577335         1.947086
 H         4.139701         1.859658         1.372641
 H         2.293716         2.196457        -2.079171
 H         3.867371         1.756584        -1.860531
 H         2.666672        -0.187365        -1.997087
