19
Iteration:   958
 C        -0.094281         0.490209        -0.059508
 C         1.419558         0.149895        -0.001348
 O         1.848541        -1.267779         0.061088
 C         3.174969        -0.565472         0.119152
 C         2.569464         0.463021         1.091034
 C         3.029188         1.912249         1.143561
 O         2.733837         2.561015        -0.051206
 C         3.005194         1.842697        -1.245758
 C         2.517055         0.359085        -1.040843
 H        -0.698708         0.072245         0.837975
 H        -0.187887         1.587678        -0.092178
 H        -0.548201         0.020124        -0.938915
 H         3.991455        -1.253946         0.243439
 H         2.414728         0.079732         2.065816
 H         2.524046         2.458107         1.935638
 H         4.114907         1.933888         1.289892
 H         2.331080         2.152308        -1.963167
 H         4.028349         2.106874        -1.735628
 H         2.504934        -0.119240        -1.966961
