19
Iteration:  4869charge 0 multiplicity 1
 C        -0.015006         0.509438        -0.055968
 C         1.428013         0.137103         0.050289
 O         1.891481        -1.273208         0.172423
 C         3.151132        -0.512024         0.037841
 C         2.502380         0.531593         1.144004
 C         3.001624         1.935279         1.125316
 O         2.663380         2.580066        -0.154046
 C         3.026567         1.730830        -1.272577
 C         2.497325         0.275252        -1.042790
 H        -0.493110         0.670221         0.866849
 H         0.072958         1.520453        -0.504115
 H        -0.486185        -0.259543        -0.563867
 H         4.175052        -0.957417        -0.104222
 H         2.316849         0.116719         2.099072
 H         2.656526         2.506696         2.005980
 H         4.097473         2.110922         1.303071
 H         2.554070         2.163562        -2.107346
 H         4.201436         1.704378        -1.278620
 H         2.163308        -0.227597        -1.935347
