19
Iteration:   548charge 0 multiplicity 1
 C        -0.034240         0.478143         0.044163
 C         1.398585         0.194124         0.081427
 O         1.828321        -1.292360         0.093872
 C         3.181115        -0.558333        -0.042592
 C         2.566837         0.432253         1.083192
 C         2.917019         1.948540         1.195387
 O         2.739471         2.594397        -0.099761
 C         3.133021         1.798721        -1.244530
 C         2.441396         0.382140        -1.121067
 H        -0.473776         0.172837         1.041456
 H        -0.149150         1.417411        -0.235450
 H        -0.504368        -0.271956        -0.780554
 H         4.154650        -1.000457        -0.231290
 H         2.462266        -0.032569         2.018904
 H         2.231194         2.409830         1.892002
 H         3.902613         2.089743         1.751326
 H         2.862419         2.267912        -2.109088
 H         4.218618         1.734155        -1.271699
 H         2.209248        -0.173656        -2.026505
