19
Iteration:   438charge 0 multiplicity 1
 C        -0.053441         0.403070        -0.040428
 C         1.454082         0.176893         0.002702
 O         1.789565        -1.265641         0.152221
 C         3.139451        -0.563566         0.037837
 C         2.613156         0.426758         1.076123
 C         3.067898         1.849091         1.138802
 O         2.764138         2.631252        -0.068831
 C         2.982126         1.832586        -1.212630
 C         2.473205         0.428322        -1.063698
 H        -0.570173        -0.153529         0.749279
 H        -0.368813         1.375730        -0.177569
 H        -0.356714        -0.141884        -1.072878
 H         3.870446        -1.403860        -0.085839
 H         2.299289         0.202867         2.080361
 H         2.546799         2.523237         1.902181
 H         4.101133         2.117933         1.435652
 H         2.493317         2.348694        -2.018829
 H         4.100428         1.924933        -1.365892
 H         2.154812         0.268921        -2.132109
