19
Iteration:  2790
 C         0.047890         0.417277         0.021361
 C         1.470005         0.117842         0.068564
 O         1.826034        -1.363720         0.147908
 C         3.076092        -0.531694         0.025502
 C         2.559630         0.536798         1.053513
 C         2.969406         1.997002         1.105926
 O         2.672723         2.634324        -0.103418
 C         3.059245         1.764355        -1.178183
 C         2.469032         0.392398        -1.096292
 H        -0.711604         0.182375         0.825837
 H         0.002929         1.491814        -0.437851
 H        -0.288579        -0.270309        -0.847841
 H         4.132592        -1.042642        -0.194125
 H         2.390218        -0.056656         1.941638
 H         2.727711         2.626013         1.922864
 H         4.078150         1.980593         1.340694
 H         2.713867         2.348568        -1.959187
 H         4.197369         1.765437        -1.340889
 H         2.200073        -0.132133        -2.054308
