19
Iteration:     4charge 0 multiplicity 1
 C        -0.064694         0.447663         0.024388
 C         1.416122         0.164043         0.037854
 O         1.840014        -1.274307         0.061920
 C         3.100254        -0.481025         0.039345
 C         2.512273         0.476628         1.063958
 C         3.033999         1.905356         1.131707
 O         2.774113         2.566965        -0.063825
 C         3.031021         1.830580        -1.216790
 C         2.513448         0.360631        -1.069538
 H        -0.504337        -0.012555         0.915084
 H        -0.154728         1.497030        -0.109574
 H        -0.486820        -0.091983        -0.971881
 H         4.098001        -1.049761         0.065823
 H         2.392501        -0.140282         2.074553
 H         2.500893         2.423600         1.957405
 H         4.122603         1.923368         1.450686
 H         2.483249         2.322366        -2.070992
 H         4.133551         1.694668        -1.400921
 H         2.323865        -0.141429        -2.102394
