19
Iteration:  4342
 C        -0.137891         0.319826         0.012183
 C         1.341795         0.094600         0.062715
 O         1.866241        -1.249688         0.161683
 C         3.089385        -0.498854         0.030556
 C         2.523820         0.510644         1.075213
 C         3.012282         1.981370         1.121781
 O         2.828008         2.656205        -0.161264
 C         3.133584         1.768426        -1.240514
 C         2.481197         0.350424        -1.072511
 H        -0.590424         0.063195         0.970531
 H        -0.168970         1.502792        -0.181128
 H        -0.545744        -0.105323        -0.878246
 H         4.150195        -0.919249         0.033893
 H         2.580022        -0.031428         2.071927
 H         2.442414         2.576925         1.872704
 H         3.985121         2.045174         1.599981
 H         2.529481         2.228809        -2.027733
 H         4.196482         1.592900        -1.446959
 H         2.229204        -0.221699        -1.987859
