19
Iteration:  1711
 C        -0.065796         0.478583        -0.104781
 C         1.376247         0.084890         0.009666
 O         1.857138        -1.264505         0.178924
 C         3.193262        -0.482787         0.027664
 C         2.535632         0.366223         1.104414
 C         3.039471         1.857797         1.175206
 O         2.698411         2.639636        -0.099689
 C         3.006181         1.842368        -1.256673
 C         2.531723         0.387959        -1.032826
 H        -0.658309         0.008566         0.711324
 H         0.032644         1.478886         0.105253
 H        -0.437491         0.230049        -1.126741
 H         3.976542        -1.141444         0.082513
 H         2.375239        -0.240779         2.042428
 H         2.713404         2.606692         2.022557
 H         4.147098         1.997090         1.335478
 H         2.380891         2.362391        -2.086526
 H         4.159814         1.838919        -1.515495
 H         2.263481        -0.012516        -1.999350
