19
Iteration:   858charge 0 multiplicity 1
 C        -0.108032         0.353507        -0.013293
 C         1.424181         0.115347         0.031033
 O         1.808881        -1.309342         0.070386
 C         3.061953        -0.530982         0.057691
 C         2.569946         0.448478         1.067576
 C         3.049273         1.972059         1.178709
 O         2.781613         2.681111        -0.063284
 C         3.077424         1.831155        -1.270598
 C         2.521331         0.361124        -1.027431
 H        -0.597545        -0.169792         0.803054
 H        -0.495278         1.507150        -0.070252
 H        -0.377597        -0.041731        -0.978902
 H         4.022435        -1.175815        -0.118290
 H         2.424291        -0.003198         2.080725
 H         2.551489         2.558530         1.993315
 H         4.175164         2.140665         1.295333
 H         2.580567         2.319753        -2.022188
 H         4.187380         1.868569        -1.451338
 H         2.173704        -0.009447        -2.018733
