19
Iteration:  1854charge 0 multiplicity 1
 C        -0.106741         0.403204        -0.143439
 C         1.430461         0.097327        -0.014656
 O         1.810617        -1.317681         0.122454
 C         3.137319        -0.482880         0.120856
 C         2.511579         0.538770         1.054158
 C         3.149588         1.915627         1.181440
 O         2.802707         2.631947        -0.045877
 C         2.918893         1.778405        -1.218398
 C         2.556466         0.386752        -1.063908
 H        -0.673350        -0.154453         0.633572
 H        -0.309992         1.476130         0.065840
 H        -0.423853        -0.026470        -1.147085
 H         3.957756        -1.026852         0.226731
 H         2.513620         0.037631         2.086623
 H         2.655142         2.518576         2.067024
 H         4.211680         1.960982         1.387590
 H         2.158823         2.279526        -1.929832
 H         3.928311         1.885910        -1.717855
 H         2.246333        -0.074481        -1.980115
