19
Iteration:  4646charge 0 multiplicity 1
 C         0.038872         0.435258        -0.093233
 C         1.448060         0.096192         0.126931
 O         1.772398        -1.272098         0.177489
 C         3.122735        -0.426505         0.083634
 C         2.488935         0.483637         1.133363
 C         3.094343         1.912159         1.106423
 O         2.685885         2.597706        -0.159352
 C         2.953323         1.779842        -1.263714
 C         2.575619         0.334209        -1.082227
 H        -0.422407         0.237748         0.904437
 H        -0.046783         1.560684        -0.365568
 H        -0.312836         0.004731        -1.073383
 H         3.909325        -1.122218         0.277667
 H         2.611053        -0.014992         2.112212
 H         2.604119         2.598115         1.974428
 H         4.167575         1.971094         1.088704
 H         2.145349         2.132769        -1.896952
 H         4.047636         1.942187        -1.556868
 H         2.541046        -0.346591        -1.978037
