19
Iteration:   382charge 0 multiplicity 1
 C        -0.007103         0.495359         0.144578
 C         1.369088         0.188721        -0.026416
 O         1.877967        -1.316111         0.020121
 C         3.115730        -0.470242         0.075675
 C         2.524786         0.425920         1.090169
 C         2.916632         1.858088         1.143299
 O         2.779361         2.617684        -0.056998
 C         3.072061         1.791909        -1.299570
 C         2.562892         0.371032        -1.103078
 H        -0.351419         0.421083         1.169888
 H        -0.379057         1.502127        -0.158306
 H        -0.747298        -0.068786        -0.528242
 H         4.055666        -1.090591         0.056479
 H         2.255773        -0.187363         1.978480
 H         2.202338         2.431418         1.839025
 H         3.968704         1.786510         1.526400
 H         2.566951         2.327092        -2.114486
 H         4.197952         1.951460        -1.553334
 H         2.314478        -0.275990        -2.016644
