19
Iteration:  1008charge 0 multiplicity 1
 C        -0.079348         0.367822        -0.107219
 C         1.376182         0.161209         0.074224
 O         1.842906        -1.326269         0.092282
 C         3.092509        -0.485086         0.073027
 C         2.491670         0.466407         1.105455
 C         3.144098         1.880010         1.085434
 O         2.778574         2.654771        -0.053257
 C         2.994516         1.818008        -1.193660
 C         2.508110         0.422196        -1.026072
 H        -0.664126        -0.156071         0.563516
 H        -0.263715         1.501310         0.000891
 H        -0.368647         0.001272        -1.072665
 H         3.983620        -1.185366         0.010696
 H         2.390309         0.070488         2.171627
 H         2.643320         2.456149         1.902446
 H         4.261328         1.810495         1.276271
 H         2.597568         2.284950        -2.246754
 H         4.013052         2.038806        -1.407286
 H         2.374382        -0.092417        -2.043814
