19
Iteration:  1353
 C        -0.120849         0.476566        -0.032791
 C         1.381568         0.111775        -0.000331
 O         1.842475        -1.277286         0.111088
 C         3.189567        -0.574726         0.101423
 C         2.443796         0.470179         1.085696
 C         3.055186         1.852962         1.112871
 O         2.775520         2.601287        -0.063945
 C         2.939986         1.910272        -1.268237
 C         2.713670         0.400123        -1.047363
 H        -0.685665        -0.032040         0.936629
 H        -0.205397         1.555824         0.070234
 H        -0.741181         0.116694        -1.023338
 H         4.195132        -1.334867         0.155933
 H         2.212643        -0.027995         2.070213
 H         2.592733         2.383076         1.969951
 H         4.197381         1.777459         1.285841
 H         2.185757         2.228021        -2.064247
 H         3.937217         2.152605        -1.698892
 H         2.437847        -0.215320        -1.962255
