19
Iteration:  4534
 C        -0.001986         0.395033         0.074169
 C         1.379545         0.067366         0.024752
 O         1.900549        -1.279144         0.122405
 C         3.098873        -0.448091         0.101075
 C         2.487704         0.517292         1.045949
 C         2.917747         1.958067         1.093785
 O         2.841628         2.614064        -0.180366
 C         3.058736         1.756798        -1.228556
 C         2.459239         0.382540        -1.080442
 H        -0.560923         0.269548         1.054132
 H        -0.112359         1.440436         0.052007
 H        -0.549458        -0.154873        -0.797197
 H         4.060266        -0.902650         0.124576
 H         2.232263         0.149389         2.063472
 H         2.270399         2.470665         1.973761
 H         4.117717         1.878359         1.320110
 H         2.615399         2.320281        -2.116743
 H         4.103559         1.536836        -1.325329
 H         2.398180        -0.361638        -1.887255
