19
Iteration:  4775
 C        -0.091603         0.399040        -0.029984
 C         1.375241         0.112557         0.118620
 O         1.925395        -1.313423         0.229142
 C         3.105000        -0.455098         0.032361
 C         2.462431         0.530651         1.059582
 C         2.981360         1.894224         1.058000
 O         2.873277         2.619032        -0.202489
 C         3.085454         1.783866        -1.223985
 C         2.442709         0.396857        -1.056581
 H        -0.778919        -0.262341         0.656988
 H        -0.402059         1.381921         0.306543
 H        -0.526821         0.043947        -1.064024
 H         4.122181        -0.747919         0.161064
 H         2.282852         0.130824         2.132388
 H         2.505446         2.641309         1.741238
 H         4.003891         1.824849         1.461946
 H         2.588206         2.338088        -2.129634
 H         4.135029         1.661261        -1.369807
 H         2.216357        -0.294644        -1.911759
