19
Iteration:  4444charge 0 multiplicity 1
 C        -0.113178         0.537942        -0.156919
 C         1.426757         0.129730         0.091561
 O         1.872758        -1.325623         0.200276
 C         3.180413        -0.385302         0.103225
 C         2.597599         0.469262         1.082733
 C         3.083561         1.903103         1.092666
 O         2.661350         2.556443        -0.142206
 C         3.030647         1.781036        -1.239221
 C         2.477790         0.301935        -1.036520
 H        -0.606493         0.238980         0.799101
 H        -0.087549         1.640683         0.027459
 H        -0.625030        -0.058609        -0.949045
 H         4.125013        -1.007094         0.273118
 H         2.375796         0.012480         2.048768
 H         2.475191         2.465153         1.915593
 H         4.188867         1.930381         1.191206
 H         2.492863         2.269390        -2.150263
 H         4.038324         1.780230        -1.513292
 H         2.119844        -0.268121        -1.912276
