19
Iteration:  3471
 C         0.067076         0.441486         0.040937
 C         1.528394         0.120187         0.015800
 O         1.759508        -1.353714         0.098010
 C         3.138579        -0.452618         0.161597
 C         2.447934         0.564431         1.146436
 C         2.929578         1.953817         1.055679
 O         2.754511         2.587573        -0.155280
 C         2.995957         1.778357        -1.298405
 C         2.538368         0.366213        -1.080981
 H        -0.253203        -0.120785         0.898635
 H         0.001601         1.572329         0.381272
 H        -0.444386         0.020065        -0.787366
 H         3.983037        -1.114010         0.202832
 H         2.209215         0.031640         2.122984
 H         2.720985         2.579345         1.900688
 H         3.954195         1.932681         1.290211
 H         2.527629         2.146810        -2.202583
 H         4.112049         1.669551        -1.467900
 H         2.453850        -0.169553        -2.011313
