19
Iteration:   347charge 0 multiplicity 1
 C        -0.075683         0.469779        -0.035379
 C         1.479180         0.148673         0.033385
 O         1.842237        -1.318718         0.096697
 C         3.082339        -0.576262        -0.005908
 C         2.654396         0.417983         1.086625
 C         2.986650         1.952314         1.183463
 O         2.762470         2.701659        -0.056930
 C         3.051196         1.797301        -1.220836
 C         2.403305         0.351319        -1.096090
 H        -0.581087         0.055931         0.812973
 H        -0.139727         1.629315        -0.122139
 H        -0.413790        -0.085788        -0.856142
 H         3.966439        -1.146325        -0.200181
 H         2.609983         0.004650         2.115018
 H         2.329283         2.362367         1.964480
 H         3.998535         2.089955         1.647940
 H         2.563070         2.234980        -2.072741
 H         4.180785         1.646859        -1.314663
 H         2.080585        -0.098747        -2.045784
