19
Iteration:   902
 C        -0.157277         0.502576         0.097904
 C         1.364935         0.157758         0.020801
 O         1.914714        -1.359320         0.080175
 C         3.140214        -0.480483        -0.055388
 C         2.572507         0.463654         1.092286
 C         2.926570         1.891147         1.208854
 O         2.718782         2.602206        -0.111351
 C         3.157900         1.771129        -1.237414
 C         2.486897         0.363784        -1.138325
 H        -0.501452         0.371369         1.145187
 H        -0.202373         1.677770        -0.147430
 H        -0.730580         0.076426        -0.687430
 H         4.182597        -0.985068        -0.003685
 H         2.453701        -0.092373         2.032355
 H         2.291864         2.468034         1.912663
 H         3.936983         2.179468         1.548684
 H         2.872018         2.281343        -2.072187
 H         4.253192         1.846894        -1.136790
 H         2.649264        -0.199943        -2.054349
