19
Iteration:  2373
 C        -0.133946         0.432335        -0.175587
 C         1.375161         0.118159        -0.018697
 O         1.838437        -1.269854         0.164400
 C         3.129882        -0.477879         0.079530
 C         2.648001         0.402901         1.209909
 C         3.096351         1.934870         1.090581
 O         2.664270         2.562996        -0.078597
 C         3.014221         1.833680        -1.176634
 C         2.568397         0.389520        -1.070526
 H        -0.761322         0.027155         0.682954
 H        -0.240815         1.529279         0.009974
 H        -0.580833         0.002850        -1.072897
 H         3.998636        -1.058331         0.017920
 H         2.544612        -0.206022         2.109360
 H         2.729536         2.547960         2.003468
 H         4.196876         2.026037         1.211987
 H         2.523944         2.466195        -2.038337
 H         4.017911         1.898991        -1.520635
 H         2.394211         0.020810        -2.126145
