19
Iteration:  4500
 C        -0.106383         0.459845         0.019246
 C         1.401829         0.168808         0.033982
 O         1.899038        -1.275462         0.127992
 C         3.125702        -0.488227         0.145280
 C         2.525509         0.482110         1.077251
 C         3.003875         1.903837         1.089936
 O         2.730203         2.578502        -0.160169
 C         3.000473         1.793129        -1.267758
 C         2.598233         0.324939        -1.033599
 H        -0.560279         0.208907         1.013338
 H        -0.269271         1.463173        -0.332478
 H        -0.682161        -0.069254        -0.797180
 H         3.966111        -1.186547         0.191522
 H         2.256431         0.098104         2.073422
 H         2.671469         2.649788         1.926436
 H         4.188029         1.887763         1.256015
 H         2.339244         2.290522        -2.069443
 H         3.977757         1.903163        -1.660159
 H         2.700357        -0.277149        -1.949683
