19
Iteration:  1108
 C         0.012536         0.446722         0.009165
 C         1.445233         0.126718         0.019186
 O         1.832095        -1.215350         0.105276
 C         3.126318        -0.529315        -0.003854
 C         2.510759         0.410380         1.087056
 C         2.971321         1.884832         1.170069
 O         2.748207         2.606627        -0.079586
 C         3.081619         1.836414        -1.233590
 C         2.451859         0.403646        -1.077847
 H        -0.411659        -0.080447         0.735168
 H        -0.281551         1.507741        -0.132693
 H        -0.253050        -0.038014        -0.840184
 H         4.021561        -1.171439        -0.066991
 H         2.237034        -0.040404         2.056968
 H         2.343020         2.253537         1.922406
 H         3.965449         2.063146         1.574402
 H         2.609938         2.359340        -2.096141
 H         4.271253         1.667819        -1.369014
 H         2.261871        -0.178369        -1.928725
