19
Iteration:  1507
 C         0.025187         0.402319        -0.144943
 C         1.467332         0.103571         0.039990
 O         1.807052        -1.331260         0.104194
 C         3.080227        -0.529592         0.049389
 C         2.603075         0.468929         1.150843
 C         3.117373         1.956300         1.145638
 O         2.723001         2.658704        -0.058680
 C         2.916463         1.811601        -1.169665
 C         2.427489         0.429693        -1.065551
 H        -0.710589        -0.208871         0.476791
 H        -0.038767         1.410145         0.042399
 H        -0.183919         0.307118        -1.264857
 H         4.001018        -1.187665         0.144669
 H         2.296991        -0.087620         2.066715
 H         2.724257         2.539622         1.905205
 H         4.252619         1.927490         1.275386
 H         2.605814         2.298512        -2.035732
 H         3.997195         1.748106        -1.532666
 H         2.169994        -0.146443        -1.960587
