19
Iteration:  2401
 C         0.020788         0.370710        -0.052925
 C         1.426432         0.171070        -0.012624
 O         1.898050        -1.231689         0.057962
 C         3.067461        -0.497334         0.145676
 C         2.417753         0.481782         1.118631
 C         3.088961         1.866755         1.121501
 O         2.701435         2.675450        -0.078889
 C         2.999301         1.801404        -1.207948
 C         2.518267         0.346484        -1.053692
 H        -0.463074         0.129227         0.915235
 H        -0.239828         1.399033        -0.064555
 H        -0.300105        -0.196575        -0.958483
 H         4.075588        -1.150012         0.140817
 H         2.124659        -0.106272         2.029874
 H         2.911930         2.407149         2.002140
 H         4.128867         1.512426         0.953117
 H         2.450421         2.317089        -1.922980
 H         4.128532         1.721326        -1.524497
 H         2.365452        -0.064497        -2.029311
