19
Iteration:   608
 C        -0.058635         0.365135         0.031707
 C         1.406383         0.205474        -0.049135
 O         1.822398        -1.249385         0.056834
 C         3.116663        -0.492771         0.169707
 C         2.459488         0.429317         1.084335
 C         3.059435         1.870311         1.129539
 O         2.762898         2.564539        -0.085213
 C         3.008068         1.842555        -1.243332
 C         2.604751         0.379271        -1.073943
 H        -0.539286         0.112738         0.943301
 H        -0.411854         1.554412        -0.025222
 H        -0.495842        -0.051909        -0.832221
 H         4.056331        -1.122652         0.221898
 H         2.409862        -0.001094         2.185980
 H         2.601420         2.539356         1.929565
 H         4.196548         1.900394         1.184155
 H         2.238754         2.410712        -2.054440
 H         3.967844         2.104784        -1.710349
 H         2.702408        -0.132579        -2.066906
