19
Iteration:  1534charge 0 multiplicity 1
 C        -0.167043         0.453565        -0.060010
 C         1.450668         0.187307         0.050054
 O         1.856067        -1.326024         0.132738
 C         3.135980        -0.471898         0.045929
 C         2.586743         0.428585         1.071587
 C         3.060036         1.858364         1.130469
 O         2.690511         2.588495        -0.047690
 C         3.052809         1.818443        -1.213291
 C         2.562645         0.413325        -1.064301
 H        -0.742290        -0.063729         0.672937
 H        -0.421464         1.669117        -0.222015
 H        -0.373082         0.098025        -1.045808
 H         4.042749        -1.086873         0.109778
 H         2.330377        -0.068779         2.005786
 H         2.531296         2.521989         1.956949
 H         4.118681         1.870732         1.136694
 H         2.415997         2.268937        -2.071416
 H         4.052999         2.064693        -1.537552
 H         2.364486        -0.177066        -1.976181
