19
Iteration:  1701charge 0 multiplicity 1
 C        -0.093684         0.439639        -0.085124
 C         1.428021         0.144124        -0.008256
 O         1.824309        -1.276853         0.122743
 C         3.153599        -0.517673         0.063288
 C         2.541731         0.475317         1.151141
 C         3.082112         1.883362         1.129358
 O         2.708876         2.610570        -0.041242
 C         2.984951         1.831688        -1.231623
 C         2.578878         0.356876        -1.070103
 H        -0.741677        -0.182253         0.642727
 H        -0.204591         1.461146         0.031288
 H        -0.583541         0.340580        -1.131277
 H         4.076239        -0.977184        -0.002797
 H         2.434443        -0.051255         2.153253
 H         2.648996         2.498890         2.009016
 H         4.161888         1.719407         1.112240
 H         2.276305         2.174218        -2.078846
 H         4.085069         2.112017        -1.541500
 H         2.453453        -0.243374        -1.968554
