19
Iteration:   670charge 0 multiplicity 1
 C        -0.121288         0.461418        -0.086590
 C         1.372541         0.123091         0.040275
 O         1.919200        -1.279612         0.147757
 C         3.160438        -0.493321        -0.020703
 C         2.555828         0.436191         1.155460
 C         3.000716         1.917070         1.186446
 O         2.755114         2.625762        -0.069178
 C         3.066603         1.789802        -1.256241
 C         2.436270         0.383499        -1.051139
 H        -0.799946        -0.067708         0.603039
 H        -0.099290         1.544186         0.043616
 H        -0.419980         0.287849        -1.169376
 H         4.086191        -1.106241        -0.215923
 H         2.603904        -0.230823         2.017019
 H         2.487047         2.500267         1.979473
 H         4.066334         1.902420         1.339436
 H         2.435660         2.265051        -1.911925
 H         4.144351         1.692900        -1.653819
 H         2.298970        -0.185684        -1.983984
