19
Iteration:  4921
 C        -0.012993         0.465608         0.130563
 C         1.396405         0.123106         0.045997
 O         1.870236        -1.341648         0.068287
 C         3.136183        -0.481232         0.090289
 C         2.450740         0.535941         1.109311
 C         2.893134         2.032989         1.106543
 O         2.779877         2.619828        -0.189892
 C         3.111407         1.681837        -1.256516
 C         2.503540         0.315150        -1.107839
 H        -0.422799        -0.073747         0.973926
 H        -0.220883         1.628355         0.162346
 H        -0.485520        -0.005443        -0.755534
 H         4.122555        -0.962720         0.321119
 H         2.212822         0.066181         2.044964
 H         2.526273         2.748477         1.973036
 H         4.020351         2.077250         1.259662
 H         2.677660         2.166505        -2.124746
 H         4.149582         1.606700        -1.363612
 H         2.520268        -0.233532        -2.063411
