19
Iteration:  1042
 C        -0.002645         0.381957         0.094335
 C         1.412352         0.148229        -0.044411
 O         1.849006        -1.264811         0.011626
 C         3.093711        -0.463847         0.112986
 C         2.382188         0.500308         1.076911
 C         3.007642         1.894592         1.156466
 O         2.801502         2.563958        -0.055173
 C         3.071682         1.840941        -1.264936
 C         2.566450         0.385015        -1.116748
 H        -0.285595         0.104818         1.047177
 H        -0.221381         1.512162        -0.059701
 H        -0.544042        -0.083321        -0.644261
 H         3.947344        -1.229563         0.173341
 H         2.100121         0.019067         2.049687
 H         2.406166         2.461671         1.871433
 H         4.048140         1.857800         1.597038
 H         2.331794         2.203343        -2.055565
 H         4.100343         1.838147        -1.504619
 H         2.580001        -0.163325        -2.049606
