19
Iteration:   642charge 0 multiplicity 1
 C        -0.024806         0.415217        -0.071405
 C         1.435606         0.127296        -0.034094
 O         1.897239        -1.313154         0.095684
 C         3.101771        -0.528182         0.088981
 C         2.442503         0.493808         1.142034
 C         3.074476         1.913032         1.135481
 O         2.808837         2.653828        -0.090054
 C         2.929969         1.847856        -1.186466
 C         2.443344         0.352618        -1.040666
 H        -0.647995        -0.142247         0.608029
 H         0.126447         1.582673         0.069693
 H        -0.267728         0.304796        -1.118563
 H         4.039125        -1.128892         0.079154
 H         2.494231        -0.131310         2.105572
 H         2.697383         2.528095         2.003163
 H         4.188738         1.798743         1.323573
 H         2.165413         2.327014        -1.988072
 H         3.910348         1.693978        -1.645275
 H         2.406309        -0.190117        -2.022469
