19
Iteration:  2403charge 0 multiplicity 1
 C         0.022536         0.365851        -0.048398
 C         1.430461         0.171778        -0.013994
 O         1.896287        -1.231498         0.064900
 C         3.071522        -0.499953         0.140693
 C         2.409205         0.460657         1.132904
 C         3.068524         1.863275         1.112675
 O         2.718233         2.686882        -0.082022
 C         2.992541         1.805592        -1.212490
 C         2.530018         0.357678        -1.056265
 H        -0.423843         0.105799         0.976467
 H        -0.223357         1.410016        -0.119341
 H        -0.340003        -0.164187        -0.954916
 H         4.063252        -1.144485         0.162343
 H         2.108827        -0.115997         2.043456
 H         2.876387         2.403131         1.970832
 H         4.138952         1.505957         0.894778
 H         2.413025         2.309228        -1.919513
 H         4.156994         1.699758        -1.495558
 H         2.342255        -0.034260        -2.035917
