19
Iteration:  2610
 C        -0.010689         0.504627         0.008589
 C         1.464744         0.158538        -0.072759
 O         1.919851        -1.333548         0.027323
 C         3.121911        -0.478596         0.069576
 C         2.488994         0.494928         1.152427
 C         3.031182         1.949313         1.232079
 O         2.697475         2.577687        -0.110374
 C         2.919595         1.729163        -1.241923
 C         2.584093         0.335142        -1.060790
 H        -0.472605         0.443283         1.066322
 H        -0.080530         1.599544        -0.089444
 H        -0.651535         0.038786        -0.775666
 H         4.025370        -1.076177         0.322605
 H         2.124573        -0.142162         1.991879
 H         2.361395         2.622901         1.803233
 H         4.084737         2.014126         1.559304
 H         2.441738         2.226377        -2.064431
 H         4.014908         1.719804        -1.651805
 H         2.325908        -0.123073        -1.975040
