19
Iteration:  4041charge 0 multiplicity 1
 C        -0.001510         0.496626         0.047746
 C         1.502118         0.137071         0.051800
 O         1.801703        -1.390078         0.179624
 C         3.104306        -0.484597         0.084486
 C         2.608396         0.514269         1.110351
 C         2.899361         1.963261         1.064128
 O         2.680985         2.640551        -0.177573
 C         3.141106         1.779450        -1.225303
 C         2.454097         0.265355        -1.118769
 H        -0.648831         0.181011         0.960182
 H        -0.249636         1.653294        -0.092917
 H        -0.183346        -0.040654        -0.999685
 H         4.049861        -0.947780        -0.090921
 H         2.462156         0.112241         2.199804
 H         2.414171         2.575607         1.821103
 H         4.132914         2.011946         1.297423
 H         2.816039         2.330704        -2.102247
 H         4.216419         1.714425        -1.214015
 H         2.013917        -0.109571        -2.075644
