19
Iteration:  4157
 C        -0.058808         0.362756        -0.042546
 C         1.383569         0.141667         0.079056
 O         1.840625        -1.293690         0.214934
 C         3.096273        -0.449471         0.016794
 C         2.469996         0.543998         1.080915
 C         2.984004         1.919836         1.124217
 O         2.857843         2.606552        -0.146389
 C         3.017014         1.775798        -1.307424
 C         2.558699         0.347903        -1.045650
 H        -0.480146         0.021143         0.818619
 H        -0.482390         1.384639        -0.085993
 H        -0.350087        -0.173156        -0.849150
 H         4.034275        -1.136593        -0.016367
 H         2.552993         0.167132         2.066963
 H         2.597224         2.731196         1.824877
 H         4.121097         1.859202         1.511406
 H         2.490458         2.366779        -2.074429
 H         4.103114         1.830885        -1.432652
 H         2.075924        -0.215387        -1.815874
