19
Iteration:  1127charge 0 multiplicity 1
 C        -0.115947         0.406460        -0.019299
 C         1.434130         0.214229        -0.013109
 O         1.814563        -1.349203         0.051751
 C         3.110411        -0.499941         0.075637
 C         2.494443         0.499743         1.100094
 C         3.069689         1.888645         1.131143
 O         2.712593         2.582823        -0.043470
 C         3.033594         1.838898        -1.221073
 C         2.638275         0.371947        -1.090391
 H        -0.501537        -0.085886         0.885150
 H        -0.202032         1.597377         0.129257
 H        -0.746307         0.177410        -0.919602
 H         3.957687        -1.086281         0.244736
 H         2.467881        -0.028486         2.101736
 H         2.703387         2.589309         1.958091
 H         4.146685         1.855233         1.407366
 H         2.347873         2.407358        -1.899360
 H         4.144628         1.846120        -1.557454
 H         2.515263        -0.101900        -2.132789
