19
Iteration:   121charge 0 multiplicity 1
 C        -0.078741         0.452347        -0.121537
 C         1.408715         0.090986         0.049971
 O         1.821755        -1.304890         0.132585
 C         3.077093        -0.572195         0.017940
 C         2.702002         0.475101         1.079612
 C         3.083767         1.953047         1.159950
 O         2.751671         2.626290        -0.075733
 C         2.978956         1.780004        -1.163792
 C         2.462513         0.408863        -1.042184
 H        -0.756436        -0.123493         0.495946
 H        -0.205677         1.552056         0.023341
 H        -0.414410         0.341789        -1.186335
 H         3.985420        -1.282084        -0.085183
 H         2.478557         0.044153         2.071064
 H         2.506582         2.465203         1.996761
 H         4.135163         2.246629         1.369723
 H         2.310859         2.287112        -1.942763
 H         4.085327         1.762343        -1.408784
 H         2.334605         0.054040        -2.089702
