19
Iteration:  3776charge 0 multiplicity 1
 C        -0.108004         0.383171        -0.030084
 C         1.366741         0.103098         0.020351
 O         1.917256        -1.221875         0.129925
 C         3.125493        -0.484812         0.152170
 C         2.425602         0.514068         1.152110
 C         3.112185         1.914200         1.031898
 O         2.775251         2.605573        -0.100232
 C         2.980966         1.744607        -1.345903
 C         2.554020         0.376117        -1.003926
 H        -0.577022        -0.007931         0.842708
 H        -0.229867         1.549324        -0.121629
 H        -0.539007        -0.090532        -0.854844
 H         4.121193        -1.015084         0.210027
 H         2.154939         0.262842         2.184905
 H         2.743671         2.528279         1.901836
 H         4.100805         1.884796         1.241316
 H         2.500081         2.284634        -2.178114
 H         4.022741         1.571889        -1.589713
 H         2.385002        -0.160047        -1.921466
