19
Iteration:  1635charge 0 multiplicity 1
 C        -0.144453         0.374267        -0.029965
 C         1.398902         0.134982        -0.008925
 O         1.900239        -1.313877         0.113067
 C         3.115546        -0.507282         0.023406
 C         2.535568         0.480643         1.083385
 C         3.009192         1.911209         1.198403
 O         2.821881         2.649126        -0.054717
 C         3.083759         1.789420        -1.223725
 C         2.452196         0.393821        -1.125059
 H        -0.628333        -0.043471         0.954075
 H        -0.152511         1.456340        -0.070675
 H        -0.698198        -0.059084        -0.950302
 H         4.098677        -0.875663        -0.021836
 H         2.273352         0.065782         2.107304
 H         2.423840         2.565173         1.931255
 H         4.041229         1.984618         1.478898
 H         2.578861         2.489911        -1.939002
 H         4.134239         1.642410        -1.394596
 H         2.216315         0.034101        -2.130773
