19
Iteration:  1248
 C        -0.138473         0.423833         0.147570
 C         1.393835         0.110890        -0.061114
 O         1.837721        -1.358198        -0.086005
 C         3.176846        -0.457953         0.119704
 C         2.466489         0.492017         1.085021
 C         2.994179         1.918036         1.141323
 O         2.767868         2.596241        -0.080494
 C         3.116739         1.785973        -1.216132
 C         2.545632         0.390998        -1.062882
 H        -0.431002         0.336171         1.171801
 H        -0.244822         1.607610        -0.252827
 H        -0.854818        -0.050902        -0.513982
 H         4.099373        -0.886294         0.218098
 H         2.227869         0.156386         2.122842
 H         2.439358         2.539247         1.939660
 H         4.086606         2.095313         1.386218
 H         2.700157         2.382336        -2.055809
 H         4.269184         1.770139        -1.270285
 H         2.599615        -0.180447        -2.024098
