19
Iteration:  2407charge 0 multiplicity 1
 C         0.005400         0.361014        -0.033048
 C         1.446369         0.167311        -0.013472
 O         1.876797        -1.254843         0.079722
 C         3.102692        -0.508620         0.121032
 C         2.396816         0.427283         1.155417
 C         3.039333         1.844974         1.077427
 O         2.754734         2.692882        -0.080179
 C         2.993318         1.815695        -1.218746
 C         2.555279         0.400506        -1.054651
 H        -0.337629         0.025947         0.939616
 H        -0.190509         1.477738        -0.252025
 H        -0.480759        -0.113853        -0.882837
 H         3.954122        -1.036047         0.228133
 H         2.105800        -0.048198         2.080644
 H         2.823691         2.503387         2.030244
 H         4.107357         1.633940         0.909035
 H         2.336374         2.319669        -2.072089
 H         4.034788         1.756075        -1.401645
 H         2.317627        -0.069167        -2.068772
