19
Iteration:  3389
 C        -0.056184         0.408219        -0.003833
 C         1.433435         0.129504         0.006351
 O         1.822557        -1.351345         0.185579
 C         3.087632        -0.556295         0.084299
 C         2.502745         0.525513         1.114227
 C         3.102780         1.978032         1.100491
 O         2.717944         2.650432        -0.124519
 C         3.046481         1.854119        -1.262500
 C         2.549144         0.313880        -1.066232
 H        -0.464452         0.063524         0.968957
 H        -0.333181         1.437014        -0.175599
 H        -0.597637        -0.109147        -0.860889
 H         4.051118        -1.085570        -0.013047
 H         2.349756         0.024895         2.051165
 H         2.460973         2.610278         1.733202
 H         4.129908         2.112164         1.233911
 H         2.513743         2.242955        -2.170237
 H         4.171572         1.880628        -1.472686
 H         2.322747        -0.247209        -2.032226
