19
Iteration:     8charge 0 multiplicity 1
 C        -0.085841         0.432427         0.021661
 C         1.410063         0.203870         0.061703
 O         1.824148        -1.263806         0.057927
 C         3.121253        -0.458107         0.032680
 C         2.526303         0.478128         1.050783
 C         3.036259         1.912845         1.138565
 O         2.774620         2.538843        -0.058325
 C         3.029759         1.834237        -1.216204
 C         2.519244         0.322067        -1.085698
 H        -0.515383        -0.060373         0.917656
 H        -0.175627         1.571743        -0.202074
 H        -0.326250        -0.079815        -0.854439
 H         4.046188        -0.960723         0.079553
 H         2.490905        -0.181339         1.882143
 H         2.439096         2.373959         1.939800
 H         4.070170         1.971144         1.522244
 H         2.497902         2.291369        -2.027191
 H         4.115077         1.626144        -1.356200
 H         2.336355        -0.104658        -2.029064
