19
Iteration:  3561
 C        -0.085704         0.383090         0.021960
 C         1.374734         0.197767         0.014452
 O         1.852957        -1.317458         0.099672
 C         3.116319        -0.449610         0.225235
 C         2.562974         0.471839         1.087879
 C         3.061841         1.943410         1.088178
 O         2.805175         2.609212        -0.120673
 C         2.974310         1.765209        -1.338249
 C         2.550788         0.333606        -1.071980
 H        -0.659497         0.323612         0.974151
 H        -0.381513         1.481654        -0.439411
 H        -0.603062        -0.219775        -0.717159
 H         4.102257        -1.066780         0.323373
 H         2.242906         0.152311         2.142261
 H         2.391970         2.387538         1.822793
 H         4.136775         2.109571         1.491815
 H         2.302447         2.267219        -1.989917
 H         4.053076         1.974223        -1.769541
 H         2.471963        -0.272348        -1.924694
