19
Iteration:  2663
 C        -0.066521         0.339296         0.043970
 C         1.421838         0.157144         0.001824
 O         1.832267        -1.334762         0.091913
 C         3.098548        -0.464010        -0.049130
 C         2.567985         0.573195         1.102972
 C         2.960887         2.009707         1.138913
 O         2.751214         2.632963        -0.078964
 C         3.169916         1.730988        -1.179375
 C         2.454242         0.323663        -1.102245
 H        -0.494800        -0.183367         0.924924
 H        -0.301662         1.353659         0.166268
 H        -0.572175         0.017316        -0.867903
 H         3.972449        -0.903038        -0.133189
 H         2.319330         0.059414         2.056943
 H         2.378716         2.707033         1.819089
 H         4.070931         2.005936         1.392851
 H         2.691756         2.392744        -1.937035
 H         4.239009         1.557659        -1.210429
 H         2.323443        -0.266448        -1.996105
