19
Iteration:   527charge 0 multiplicity 1
 C         0.050344         0.454618         0.085291
 C         1.431730         0.133831        -0.049343
 O         1.827427        -1.270320         0.014697
 C         3.090085        -0.502683         0.064355
 C         2.490509         0.517467         1.111464
 C         2.944048         1.882690         1.147551
 O         2.781029         2.576192        -0.112620
 C         2.998921         1.777175        -1.198621
 C         2.593803         0.390454        -1.095795
 H        -0.287878         0.080428         1.107139
 H        -0.100984         1.435660         0.009278
 H        -0.719820         0.009898        -0.632524
 H         3.893401        -1.218960         0.189479
 H         2.384132         0.117462         2.073944
 H         2.305223         2.369011         1.869713
 H         4.001119         2.079650         1.586717
 H         2.445676         2.198174        -2.012923
 H         4.043826         1.821065        -1.478483
 H         2.354702        -0.077435        -2.023639
