19
Iteration:   768
 C         0.031654         0.430749        -0.020035
 C         1.436615         0.139557         0.043275
 O         1.823955        -1.312473         0.124328
 C         3.076189        -0.522130        -0.002751
 C         2.618582         0.498537         1.042760
 C         2.942163         1.945135         1.188545
 O         2.800600         2.572358        -0.050215
 C         3.009977         1.848136        -1.209279
 C         2.437466         0.386398        -1.105567
 H        -0.628018         0.115409         0.801148
 H        -0.055493         1.553013        -0.280128
 H        -0.212230        -0.244278        -0.945836
 H         4.089973        -1.055366        -0.039319
 H         2.445941         0.004343         2.006046
 H         2.197666         2.349148         1.899669
 H         4.039291         1.974640         1.510210
 H         2.521978         2.298306        -2.009497
 H         4.106273         1.794021        -1.404147
 H         2.116073        -0.112184        -2.055522
