19
Iteration:   718charge 0 multiplicity 1
 C        -0.072663         0.426021         0.126777
 C         1.394454         0.124013         0.018861
 O         1.853545        -1.304950        -0.003236
 C         3.097449        -0.538036         0.067682
 C         2.405386         0.449997         1.097689
 C         3.001365         1.898550         1.110566
 O         2.704495         2.640986        -0.131429
 C         3.103281         1.857947        -1.202185
 C         2.665807         0.403310        -1.100744
 H        -0.218733         0.158369         1.167275
 H        -0.129476         1.594293         0.009363
 H        -0.711885        -0.145269        -0.442922
 H         4.035886        -1.176522         0.100502
 H         2.097097         0.008481         2.160192
 H         2.477933         2.312846         2.019814
 H         4.093984         1.916530         1.215195
 H         2.693522         2.295774        -2.243667
 H         4.200648         1.756163        -1.201009
 H         2.632641        -0.006190        -2.153262
