19
Iteration:  2142
 C        -0.052910         0.478550        -0.088297
 C         1.388033         0.140059        -0.027481
 O         1.897883        -1.322963         0.180522
 C         3.088159        -0.486852         0.014982
 C         2.620560         0.455518         1.098691
 C         3.022853         1.904084         1.176421
 O         2.691584         2.549562        -0.083047
 C         3.103682         1.835303        -1.195242
 C         2.450398         0.382050        -1.088653
 H        -0.620577         0.289301         0.840712
 H        -0.166209         1.493406        -0.143799
 H        -0.420693        -0.079068        -0.931067
 H         3.987196        -0.972821        -0.020758
 H         2.250851         0.055983         2.064486
 H         2.181340         2.444107         1.813359
 H         4.108003         2.092213         1.508391
 H         2.648682         2.357996        -2.119125
 H         4.209618         1.867682        -1.285891
 H         2.188366        -0.132822        -2.060101
