19
Iteration:  3419charge 0 multiplicity 1
 C        -0.003859         0.471193        -0.102295
 C         1.417232         0.161040         0.081338
 O         1.886248        -1.272124         0.180786
 C         3.116891        -0.475089         0.074431
 C         2.554872         0.482198         1.145358
 C         3.066499         1.905187         1.103705
 O         2.685750         2.588577        -0.152477
 C         2.984809         1.750160        -1.286740
 C         2.453148         0.331003        -0.992333
 H        -0.596068        -0.107565         0.578765
 H        -0.157598         1.609785         0.051952
 H        -0.298870         0.256810        -1.113456
 H         4.201705        -0.981718        -0.015481
 H         2.484716        -0.071945         2.092593
 H         2.460552         2.463718         1.811646
 H         4.190474         2.191575         1.307482
 H         2.496295         2.062115        -2.182876
 H         4.064558         1.721901        -1.452709
 H         2.169698        -0.165718        -1.899162
