19
Iteration:  2815charge 0 multiplicity 1
 C        -0.151046         0.454205         0.084078
 C         1.425828         0.144472        -0.024848
 O         1.846561        -1.292209         0.101952
 C         3.194765        -0.482408         0.101692
 C         2.568266         0.463854         1.059462
 C         2.997841         1.910024         1.103205
 O         2.651905         2.583185        -0.162446
 C         3.119582         1.785684        -1.230242
 C         2.553730         0.414069        -1.060995
 H        -0.432294         0.019602         1.075653
 H        -0.404037         1.426331         0.003771
 H        -0.741280        -0.222880        -0.585735
 H         4.111555        -1.130551         0.119325
 H         2.291557        -0.092544         1.954575
 H         2.493110         2.541956         1.901633
 H         4.029093         2.044197         1.393311
 H         2.842225         2.383795        -2.111692
 H         4.204066         1.788226        -1.333328
 H         2.366222        -0.139871        -1.935079
