19
Iteration:  3604charge 0 multiplicity 1
 C        -0.078689         0.491858        -0.060475
 C         1.411276         0.064180         0.052729
 O         1.904410        -1.346074         0.198812
 C         3.082617        -0.502196         0.126716
 C         2.574890         0.559997         1.087796
 C         3.056950         1.905204         1.087542
 O         2.756378         2.649250        -0.132823
 C         2.959512         1.806515        -1.302767
 C         2.472094         0.297305        -1.053938
 H        -0.648484        -0.049962         0.697305
 H        -0.200741         1.683903         0.039837
 H        -0.456729         0.226855        -1.057572
 H         4.121431        -0.863835         0.198164
 H         2.456905         0.155800         2.158806
 H         2.414407         2.363239         1.860057
 H         4.180386         1.953171         1.247929
 H         2.564429         2.280220        -2.172136
 H         4.087895         1.727940        -1.414618
 H         2.408574        -0.253889        -1.954011
