19
Iteration:  1392
 C        -0.056035         0.402817         0.003242
 C         1.429225         0.099773         0.072043
 O         1.856492        -1.269852         0.055204
 C         3.142717        -0.461328        -0.009041
 C         2.481302         0.461101         1.109675
 C         3.011255         1.901903         1.155921
 O         2.725044         2.591467        -0.087956
 C         3.103081         1.792044        -1.199088
 C         2.473575         0.407715        -1.075135
 H        -0.481227         0.244336         0.910906
 H        -0.290903         1.469834        -0.287698
 H        -0.562898        -0.129492        -0.690424
 H         3.955495        -1.065292         0.022496
 H         2.212710         0.091385         2.093328
 H         2.505582         2.593666         1.851729
 H         4.100037         1.879303         1.352544
 H         2.964755         2.380377        -2.085799
 H         4.235625         1.690248        -1.372661
 H         2.278140         0.000865        -2.053397
