19
Iteration:  1091charge 0 multiplicity 1
 C        -0.007225         0.451245        -0.018595
 C         1.422552         0.161750         0.094893
 O         1.833268        -1.368480         0.057805
 C         3.104543        -0.492649        -0.063074
 C         2.605153         0.470409         1.091038
 C         2.870043         1.963469         1.199144
 O         2.809117         2.599431        -0.069744
 C         3.075476         1.755862        -1.181902
 C         2.459667         0.407800        -1.096330
 H        -0.644525         0.278451         1.007074
 H        -0.105723         1.527059        -0.076719
 H        -0.519579        -0.085838        -0.950613
 H         4.151986        -0.907959        -0.140022
 H         2.586640        -0.015720         2.070649
 H         2.061651         2.488106         1.847900
 H         3.954476         2.035572         1.520090
 H         2.845052         2.215432        -2.144025
 H         4.196250         1.691957        -1.244100
 H         2.079572         0.010536        -2.092998
