19
Iteration:  4531
 C        -0.000032         0.386175         0.083099
 C         1.374124         0.093932         0.025660
 O         1.913645        -1.307103         0.106829
 C         3.093998        -0.423724         0.116991
 C         2.476599         0.539911         1.046482
 C         2.935346         1.943035         1.116404
 O         2.822901         2.607882        -0.171969
 C         3.061001         1.757771        -1.269747
 C         2.441982         0.368525        -1.068445
 H        -0.480451         0.288026         1.026562
 H        -0.154472         1.471737        -0.087430
 H        -0.524579         0.001115        -0.751768
 H         4.094484        -0.996598         0.091874
 H         2.220079         0.187573         2.046887
 H         2.369841         2.498429         1.903157
 H         4.052942         1.830284         1.353653
 H         2.552106         2.364033        -2.073538
 H         4.201359         1.476807        -1.288794
 H         2.533774        -0.369489        -1.880011
