19
Iteration:  2216charge 0 multiplicity 1
 C        -0.047861         0.409609        -0.070408
 C         1.403111         0.171269        -0.047306
 O         1.853293        -1.296928         0.069114
 C         3.116323        -0.488179         0.079936
 C         2.452803         0.509285         1.101164
 C         3.092568         1.892706         1.112391
 O         2.768507         2.632002        -0.062126
 C         2.948364         1.767072        -1.182976
 C         2.593530         0.342241        -0.988039
 H        -0.491490        -0.043364         0.919517
 H        -0.166420         1.507500         0.082992
 H        -0.547389         0.054979        -1.042805
 H         4.190274        -0.973606         0.029364
 H         2.116716         0.120633         2.099283
 H         2.595631         2.473670         1.870747
 H         4.148726         1.863405         1.217046
 H         2.220029         2.155943        -1.900302
 H         3.981113         1.844688        -1.571650
 H         2.544228        -0.062007        -1.964146
