19
Iteration:   405charge 0 multiplicity 1
 C        -0.113860         0.524683         0.139206
 C         1.342522         0.059503        -0.015116
 O         1.973275        -1.365509        -0.024675
 C         3.136828        -0.467625         0.072407
 C         2.406884         0.526664         1.123387
 C         3.041779         1.873433         1.128497
 O         2.767767         2.570866        -0.097108
 C         3.074988         1.783810        -1.197879
 C         2.533065         0.439012        -1.106773
 H        -0.535814         0.486248         1.139398
 H        -0.254856         1.530362        -0.142380
 H        -0.912868         0.022468        -0.565623
 H         4.176096        -0.928849         0.020346
 H         2.129260         0.074734         2.084328
 H         2.497080         2.568762         1.867641
 H         4.055633         1.594525         1.421667
 H         2.557924         2.231482        -2.043066
 H         4.196892         1.822418        -1.509440
 H         2.417384        -0.015625        -2.144733
