19
Iteration:  4295
 C        -0.088411         0.453177        -0.039483
 C         1.420784         0.122795         0.017716
 O         1.866520        -1.271669         0.116079
 C         3.182874        -0.463655         0.132503
 C         2.457651         0.549023         1.117780
 C         3.063899         1.927006         1.110535
 O         2.737174         2.566313        -0.091839
 C         2.941212         1.749095        -1.311190
 C         2.584252         0.340942        -1.084693
 H        -0.447339         0.199098         0.974112
 H        -0.205362         1.510742        -0.150706
 H        -0.528504        -0.052940        -0.928378
 H         3.969065        -1.124888         0.327750
 H         2.166714         0.324969         2.183756
 H         2.949381         2.500759         1.945769
 H         4.213347         1.786182         1.347604
 H         2.225041         2.069660        -1.997986
 H         3.987649         1.788175        -1.516682
 H         2.508031        -0.304479        -1.985079
