19
Iteration:  4418
 C         0.009259         0.445178         0.023334
 C         1.466581         0.135460         0.068271
 O         1.881162        -1.281659         0.108182
 C         3.047761        -0.523103         0.097647
 C         2.441999         0.544777         1.102954
 C         2.995464         1.960139         1.100634
 O         2.736367         2.605230        -0.155912
 C         3.014253         1.759667        -1.271848
 C         2.597241         0.313181        -1.082346
 H        -0.374268         0.168860         0.984649
 H         0.016710         1.493204         0.211896
 H        -0.467329        -0.020792        -0.757040
 H         3.928819        -1.185710         0.141998
 H         2.043987         0.196148         2.068230
 H         2.422639         2.468390         1.788295
 H         4.194409         1.921238         1.374588
 H         2.407140         2.165328        -2.074721
 H         4.089619         1.724165        -1.550513
 H         2.233984        -0.179337        -1.982550
