19
Iteration:  1640
 C        -0.172592         0.362134        -0.023441
 C         1.394916         0.122059         0.028855
 O         1.883550        -1.335502         0.121308
 C         3.105736        -0.489088         0.046086
 C         2.492717         0.457345         1.032235
 C         3.046665         1.906768         1.152543
 O         2.810529         2.637321        -0.069678
 C         3.082459         1.830552        -1.209989
 C         2.505717         0.432219        -1.110906
 H        -0.770323         0.053883         0.810040
 H        -0.249694         1.488932         0.033151
 H        -0.616040        -0.028765        -0.912065
 H         4.218855        -0.814019         0.126412
 H         2.388421        -0.023668         1.988420
 H         2.588342         2.476483         1.916624
 H         4.113974         1.974993         1.646840
 H         2.510373         2.342653        -1.962861
 H         4.201711         1.792051        -1.442869
 H         2.288479        -0.007146        -2.107217
