19
Iteration:  4292charge 0 multiplicity 1
 C        -0.084251         0.479431        -0.035158
 C         1.404664         0.126904         0.023838
 O         1.863413        -1.288320         0.121649
 C         3.193074        -0.464932         0.121884
 C         2.447441         0.554883         1.137196
 C         3.088693         1.914640         1.099763
 O         2.725699         2.557340        -0.104431
 C         2.938152         1.774991        -1.281147
 C         2.585830         0.317514        -1.096213
 H        -0.470248         0.116123         0.918983
 H        -0.218857         1.485190        -0.247485
 H        -0.537667        -0.011110        -0.907892
 H         4.085178        -1.065702         0.314796
 H         2.217066         0.293424         2.148643
 H         2.862365         2.593138         1.963392
 H         4.197531         1.777262         1.403230
 H         2.250492         2.171512        -2.050713
 H         3.963592         1.801401        -1.594624
 H         2.584880        -0.355682        -1.958394
