19
Iteration:  2025
 C        -0.011031         0.404475        -0.155759
 C         1.438586         0.119864         0.085844
 O         1.861093        -1.358254         0.121607
 C         3.080251        -0.462510         0.079875
 C         2.550625         0.502139         1.078468
 C         2.960802         1.911195         1.212663
 O         2.918743         2.613153        -0.069110
 C         2.896363         1.832900        -1.271719
 C         2.473357         0.382819        -1.050589
 H        -0.722533         0.058176         0.607013
 H        -0.225189         1.586575         0.065366
 H        -0.250489         0.111288        -1.191522
 H         4.179470        -0.995799         0.230971
 H         2.528660         0.063401         2.070727
 H         2.263418         2.362329         1.860315
 H         4.026398         1.921209         1.507557
 H         2.182807         2.284303        -1.965434
 H         3.900251         1.887749        -1.812107
 H         2.224411        -0.100012        -2.045641
