19
Iteration:  3852
 C        -0.144182         0.516164         0.090201
 C         1.412655         0.112458         0.074920
 O         1.927430        -1.280059         0.099491
 C         3.136199        -0.499012         0.057821
 C         2.530821         0.500595         1.134235
 C         2.894962         1.985434         1.131125
 O         2.709505         2.546510        -0.193152
 C         3.135102         1.752869        -1.244862
 C         2.566558         0.259913        -1.122317
 H        -0.769161         0.399433         0.951565
 H         0.095846         1.683431         0.025810
 H        -0.505615         0.286884        -0.859198
 H         4.082433        -1.100234         0.144683
 H         2.273591         0.045047         2.045065
 H         2.296545         2.632856         1.757291
 H         4.073318         2.121916         1.471274
 H         2.509818         2.149123        -2.061019
 H         4.216863         1.750538        -1.479035
 H         2.395958        -0.228863        -2.045308
