19
Iteration:  4393
 C        -0.134280         0.440131         0.110701
 C         1.411058         0.067943         0.001764
 O         1.801848        -1.317423         0.110347
 C         3.108167        -0.482881         0.144930
 C         2.528611         0.450590         1.109779
 C         2.942254         1.989322         1.074794
 O         2.823125         2.660177        -0.172957
 C         3.042364         1.792597        -1.312540
 C         2.652668         0.368647        -1.087112
 H        -0.490614         0.069735         1.122836
 H        -0.277946         1.461558         0.284222
 H        -0.537437        -0.134020        -0.801221
 H         3.998622        -1.014289         0.003408
 H         2.309502         0.129585         2.192881
 H         2.180373         2.436204         1.761930
 H         4.087537         2.008360         1.470019
 H         2.555838         2.297750        -2.142451
 H         4.191433         1.468652        -1.430040
 H         2.619017        -0.169891        -2.064299
