19
Iteration:  4283
 C        -0.041843         0.519493        -0.048553
 C         1.409992         0.139366         0.008117
 O         1.870303        -1.333859         0.156947
 C         3.139649        -0.462673         0.141290
 C         2.455948         0.522611         1.138273
 C         3.113526         1.914776         1.116741
 O         2.711601         2.552793        -0.132792
 C         2.946794         1.826451        -1.263347
 C         2.570961         0.274926        -1.052966
 H        -0.690969         0.145223         0.762596
 H        -0.192592         1.513047        -0.176293
 H        -0.546790        -0.059094        -0.869916
 H         4.127657        -0.752598         0.130332
 H         2.337822        -0.048803         2.081342
 H         2.551861         2.533486         1.659347
 H         4.292377         1.846701         1.143191
 H         2.445023         2.371756        -1.993787
 H         3.909829         1.986711        -1.692153
 H         2.559251        -0.311433        -1.991713
