19
Iteration:  2052
 C        -0.123502         0.419956        -0.115781
 C         1.439049         0.088492         0.027620
 O         1.896272        -1.335331         0.106585
 C         3.143078        -0.491872         0.042728
 C         2.516946         0.496216         1.136009
 C         2.964690         1.947363         1.218769
 O         2.931786         2.616407        -0.095417
 C         2.934523         1.841504        -1.231102
 C         2.458843         0.359448        -1.055412
 H        -0.557588        -0.055121         0.772654
 H        -0.334925         1.421614         0.016403
 H        -0.526290         0.191633        -1.125025
 H         4.037271        -1.068627        -0.129626
 H         2.400807         0.068320         2.164857
 H         2.204710         2.588398         1.840610
 H         4.048655         1.981841         1.423797
 H         2.386461         2.402435        -2.042754
 H         3.996093         1.670636        -1.454336
 H         2.345829        -0.082616        -2.008212
