19
Iteration:   917
 C        -0.064839         0.563239         0.135960
 C         1.408986         0.063862        -0.034460
 O         1.905610        -1.324041         0.023619
 C         3.130471        -0.513764         0.092527
 C         2.462731         0.432087         1.054114
 C         2.930764         1.932173         1.104805
 O         2.727585         2.600078        -0.091161
 C         3.071678         1.804384        -1.201965
 C         2.633512         0.379875        -1.129846
 H        -0.363900         0.341507         1.207083
 H        -0.139797         1.545617        -0.043785
 H        -0.835439         0.031574        -0.489225
 H         4.000643        -1.036198         0.114601
 H         2.276592        -0.008105         2.023662
 H         2.317537         2.421612         1.872944
 H         3.947840         1.938147         1.550691
 H         2.641670         2.396315        -2.087238
 H         4.114027         1.701859        -1.407176
 H         2.279002        -0.142736        -2.013587
