19
Iteration:  3571
 C        -0.084813         0.402454        -0.006296
 C         1.435079         0.153738        -0.003848
 O         1.861136        -1.282746         0.118520
 C         3.103535        -0.522085         0.146513
 C         2.493100         0.566100         1.175024
 C         3.042351         1.915543         1.119411
 O         2.799505         2.594446        -0.113408
 C         2.927010         1.776357        -1.357627
 C         2.588088         0.343751        -1.087851
 H        -0.496461         0.204596         1.009037
 H        -0.184721         1.578441        -0.240750
 H        -0.544170        -0.237792        -0.739244
 H         4.076729        -1.068367         0.195767
 H         2.311824         0.263458         2.274848
 H         2.502031         2.557976         1.861618
 H         4.185837         1.943159         1.451947
 H         2.249559         2.184171        -2.081719
 H         4.003869         1.789982        -1.784021
 H         2.519650        -0.282353        -1.946068
