19
Iteration:  3880
 C         0.037113         0.459767         0.071123
 C         1.426123         0.112056        -0.020430
 O         1.803652        -1.336063         0.128249
 C         3.176828        -0.483161         0.180309
 C         2.487986         0.518453         1.068472
 C         2.970350         1.914401         1.055013
 O         2.742520         2.643204        -0.149000
 C         3.082781         1.816382        -1.241940
 C         2.515091         0.274171        -1.091362
 H        -0.466438         0.375668         1.112297
 H        -0.058526         1.506875        -0.053006
 H        -0.625295        -0.061686        -0.739679
 H         4.201416        -0.917935         0.280529
 H         1.852193         0.249789         2.010315
 H         2.293283         2.518940         1.796584
 H         4.010140         1.862675         1.264692
 H         2.482465         2.303226        -2.038422
 H         4.128067         1.822504        -1.607379
 H         2.336903        -0.370930        -2.041283
