19
Iteration:  2615charge 0 multiplicity 1
 C         0.023796         0.510505         0.036684
 C         1.421546         0.121587        -0.042142
 O         1.897376        -1.336815         0.010833
 C         3.095338        -0.443823         0.083511
 C         2.462279         0.499714         1.144326
 C         2.998012         1.928213         1.224129
 O         2.704788         2.586149        -0.110857
 C         2.971282         1.748342        -1.277345
 C         2.606172         0.358185        -1.049488
 H        -0.255666         0.226797         1.027167
 H        -0.030592         1.627801        -0.134332
 H        -0.549047        -0.048828        -0.697183
 H         4.074711        -1.114720         0.212221
 H         2.253731        -0.088553         2.033123
 H         2.417940         2.695786         1.751501
 H         4.068180         1.975505         1.474111
 H         2.245548         2.122699        -2.069379
 H         4.052600         1.617097        -1.467303
 H         2.392313        -0.125441        -2.060557
