19
Iteration:  1553charge 0 multiplicity 1
 C         0.033569         0.431958         0.000584
 C         1.404408         0.098771        -0.056391
 O         1.877143        -1.251294         0.040054
 C         3.104071        -0.492015         0.103411
 C         2.431520         0.524555         1.119115
 C         3.049130         1.896722         1.164047
 O         2.702262         2.567401        -0.038588
 C         3.019372         1.811647        -1.237894
 C         2.512752         0.365027        -1.104907
 H        -0.206521         0.106251         0.982063
 H        -0.082626         1.574005        -0.054060
 H        -0.613578        -0.036047        -0.714656
 H         4.112037        -1.041729        -0.024483
 H         2.275388         0.030770         2.049774
 H         2.542064         2.530780         1.934332
 H         4.109189         1.778345         1.429119
 H         2.706655         2.437851        -2.037577
 H         4.091594         1.709185        -1.516429
 H         2.378024        -0.235710        -2.020249
