19
Iteration:  1953charge 0 multiplicity 1
 C         0.065485         0.364198        -0.010403
 C         1.430354         0.153958         0.054640
 O         1.807988        -1.233620         0.114876
 C         3.081416        -0.502742        -0.050657
 C         2.471145         0.449787         1.093310
 C         2.956297         1.890913         1.144188
 O         2.672728         2.631648        -0.117981
 C         3.157915         1.784754        -1.189823
 C         2.496410         0.405357        -1.065076
 H        -0.299518         0.277058         1.062581
 H        -0.080950         1.392294        -0.154103
 H        -0.357666        -0.390756        -0.725442
 H         3.894391        -1.016060         0.083846
 H         2.486139        -0.052583         2.100803
 H         2.516583         2.664102         1.907400
 H         4.007304         1.790432         1.307317
 H         2.980711         2.312711        -2.193193
 H         4.258113         1.708557        -1.150023
 H         2.231986        -0.054719        -1.998360
