19
Iteration:  2743charge 0 multiplicity 1
 C        -0.033341         0.466581        -0.054546
 C         1.493216         0.129930         0.025279
 O         1.879974        -1.333500         0.130654
 C         3.161063        -0.470406         0.099239
 C         2.399467         0.517273         1.125878
 C         3.064741         1.888444         1.137368
 O         2.776473         2.555404        -0.097030
 C         2.888260         1.833083        -1.293555
 C         2.569513         0.368877        -1.065808
 H        -0.406294         0.073935         0.892867
 H        -0.214992         1.632150        -0.139148
 H        -0.518319        -0.124712        -0.848473
 H         4.155690        -0.868105         0.279612
 H         2.178001        -0.008172         2.068212
 H         2.604254         2.606332         1.783050
 H         4.100594         1.856347         1.571311
 H         2.166457         2.312924        -1.972440
 H         3.830249         1.878395        -1.931732
 H         2.335510        -0.167339        -2.017729
