19
Iteration:  1160charge 0 multiplicity 1
 C         0.008110         0.402058        -0.080802
 C         1.435835         0.126174         0.006148
 O         1.881551        -1.317239         0.054175
 C         3.108415        -0.528086         0.137753
 C         2.389250         0.482633         1.158889
 C         3.098313         1.826045         1.056134
 O         2.752252         2.633837        -0.049092
 C         2.953351         1.895560        -1.222263
 C         2.499355         0.449155        -1.059505
 H        -0.544533        -0.039173         0.763456
 H         0.023065         1.633006         0.153213
 H        -0.426743         0.276268        -1.115558
 H         3.952189        -1.067511         0.417501
 H         2.373957         0.119495         2.234011
 H         2.842510         2.269785         2.056692
 H         4.189638         1.513393         0.949643
 H         2.455327         2.372377        -2.083960
 H         3.938014         1.802417        -1.539365
 H         2.386400        -0.235232        -1.965174
