19
Iteration:  4561
 C        -0.088905         0.370151         0.044318
 C         1.395711         0.209036         0.063745
 O         1.866362        -1.377034         0.174571
 C         3.060738        -0.554724         0.025536
 C         2.589128         0.546184         1.051336
 C         2.901952         2.035947         1.193732
 O         2.834170         2.635780        -0.170589
 C         3.130750         1.787654        -1.298203
 C         2.481080         0.366482        -1.090303
 H        -0.652810        -0.123411         0.866231
 H        -0.425670         1.476202         0.291694
 H        -0.392779        -0.207361        -0.828776
 H         4.031715        -1.136222        -0.176039
 H         2.393441         0.178285         2.062429
 H         2.178088         2.400663         1.846656
 H         3.874422         2.129616         1.593969
 H         2.779161         2.300882        -2.191258
 H         4.191172         1.721920        -1.662915
 H         2.418098        -0.454723        -1.840252
