19
Iteration:  4876charge 0 multiplicity 1
 C         0.000348         0.525942        -0.032008
 C         1.441563         0.203390         0.074990
 O         1.882513        -1.325520         0.205273
 C         3.163066        -0.549379         0.058443
 C         2.513233         0.511031         1.109482
 C         2.996232         1.934034         1.142966
 O         2.648625         2.580834        -0.164327
 C         3.037651         1.738585        -1.293645
 C         2.529207         0.348097        -1.093259
 H        -0.540297         0.516636         0.948442
 H        -0.187974         1.473217        -0.616738
 H        -0.530770        -0.280350        -0.626900
 H         4.088842        -1.145313         0.083779
 H         2.432522        -0.047570         2.065347
 H         2.414184         2.668431         1.824159
 H         4.049033         1.957230         1.392399
 H         2.672435         2.337393        -2.164823
 H         4.077821         1.654817        -1.299879
 H         2.095466        -0.209912        -1.954431
