19
Iteration:  3717charge 0 multiplicity 1
 C        -0.063198         0.406766        -0.025711
 C         1.422790         0.151691         0.094171
 O         1.859199        -1.316705         0.184849
 C         3.090643        -0.454586         0.031019
 C         2.526132         0.511712         1.120365
 C         2.975821         1.986742         1.128551
 O         2.837948         2.604792        -0.098116
 C         3.022107         1.736378        -1.312644
 C         2.507395         0.332272        -1.095469
 H        -0.643920         0.318451         0.969695
 H        -0.286529         1.404427        -0.388551
 H        -0.390418        -0.326331        -0.894855
 H         4.164998        -0.901373         0.161409
 H         2.491835        -0.033405         2.064991
 H         2.293326         2.539518         1.733596
 H         4.003542         2.018323         1.356158
 H         2.365674         2.260278        -2.041354
 H         4.050821         1.768095        -1.632419
 H         2.265365        -0.158360        -2.086094
