19
Iteration:  4526charge 0 multiplicity 1
 C        -0.026075         0.409672         0.085958
 C         1.400364         0.127365         0.022427
 O         1.925815        -1.343670         0.094201
 C         3.109452        -0.414117         0.120331
 C         2.439944         0.560224         1.071868
 C         2.971979         1.925463         1.124582
 O         2.795172         2.603767        -0.146387
 C         3.068421         1.747672        -1.314224
 C         2.441139         0.344078        -1.057242
 H        -0.446490         0.181472         1.108782
 H        -0.129835         1.489849        -0.232810
 H        -0.636818         0.015819        -0.791001
 H         4.009417        -0.970143         0.091267
 H         2.237451         0.170242         2.089568
 H         2.493233         2.621683         1.814997
 H         3.990102         1.863876         1.464324
 H         2.621393         2.329341        -2.096714
 H         4.130640         1.566896        -1.397285
 H         2.578370        -0.285237        -1.954925
