19
Iteration:  2503charge 0 multiplicity 1
 C        -0.058022         0.362607         0.104639
 C         1.428956         0.154051        -0.039522
 O         1.886682        -1.349377        -0.000885
 C         3.055472        -0.491095         0.100189
 C         2.466292         0.482792         1.063310
 C         2.989036         1.995806         1.101225
 O         2.821681         2.671596        -0.099807
 C         3.072259         1.775600        -1.186568
 C         2.511073         0.363025        -1.046487
 H        -0.492167        -0.201369         0.927030
 H        -0.317955         1.426899         0.026636
 H        -0.616437         0.044673        -0.776617
 H         4.136656        -0.901450         0.202376
 H         2.123212         0.039821         1.985187
 H         2.423842         2.485463         1.827370
 H         4.008481         1.857166         1.573835
 H         2.479411         2.237930        -1.919786
 H         4.147469         1.715331        -1.429962
 H         2.442274        -0.020719        -2.063361
