19
Iteration:   978charge 0 multiplicity 1
 C        -0.062384         0.457615        -0.187851
 C         1.382597         0.140446         0.048933
 O         1.881267        -1.322945         0.203058
 C         3.101552        -0.434042         0.019026
 C         2.548963         0.458670         1.093490
 C         3.147963         1.882627         1.169621
 O         2.734493         2.623984        -0.031171
 C         2.969723         1.757596        -1.206043
 C         2.437921         0.373498        -1.102315
 H        -0.719670        -0.065986         0.542146
 H        -0.245794         1.605505        -0.083906
 H        -0.304151         0.101564        -1.157109
 H         4.078323        -1.057383        -0.104450
 H         2.465205        -0.069645         2.044897
 H         2.703561         2.529133         1.910787
 H         4.248814         1.857428         1.239281
 H         2.531270         2.389693        -1.938124
 H         4.066765         1.946919        -1.303888
 H         2.250259        -0.141312        -2.002557
