19
Iteration:  3311charge 0 multiplicity 1
 C        -0.083902         0.373202        -0.021905
 C         1.388919         0.125742         0.139334
 O         1.819824        -1.331053         0.236269
 C         3.104498        -0.494773         0.003406
 C         2.555609         0.510750         1.026328
 C         2.952875         1.879722         1.136994
 O         2.830840         2.672779        -0.124347
 C         3.101710         1.823075        -1.314260
 C         2.513581         0.363745        -1.069273
 H        -0.681738         0.216636         0.853820
 H        -0.278032         1.483559        -0.193063
 H        -0.446472        -0.232275        -0.798485
 H         4.139267        -0.846115         0.007192
 H         2.455014         0.073799         2.013055
 H         2.164761         2.350784         1.739023
 H         4.095885         2.206412         1.565341
 H         2.447322         2.083909        -2.122590
 H         4.151373         1.876595        -1.705691
 H         2.390308        -0.108464        -2.043288
