19
Iteration:  4711charge 0 multiplicity 1
 C         0.008151         0.446902         0.075408
 C         1.397921         0.099420         0.056402
 O         1.848227        -1.265856         0.114957
 C         3.111684        -0.445943         0.127215
 C         2.447451         0.458470         1.142743
 C         2.940122         1.898553         1.118398
 O         2.755975         2.598539        -0.226540
 C         3.115109         1.838242        -1.324490
 C         2.533467         0.323549        -1.092233
 H        -0.264226         0.057681         1.091515
 H        -0.008960         1.438746        -0.107985
 H        -0.714369        -0.037388        -0.612875
 H         3.971208        -1.049647         0.303688
 H         2.164434        -0.012119         2.115138
 H         2.329624         2.572189         1.886490
 H         4.069898         2.052273         1.432249
 H         2.590151         2.281085        -2.200967
 H         4.277014         1.685465        -1.382960
 H         2.514755        -0.189521        -2.078014
