19
Iteration:   836charge 0 multiplicity 1
 C        -0.146030         0.351944        -0.023303
 C         1.426643         0.153349        -0.022478
 O         1.894762        -1.279512         0.086660
 C         3.089581        -0.422723         0.150590
 C         2.425870         0.465286         1.077104
 C         3.099048         1.817974         1.154317
 O         2.814189         2.609885        -0.086549
 C         2.964194         1.861652        -1.236194
 C         2.561176         0.382162        -1.089006
 H        -0.567271        -0.116412         0.846132
 H        -0.297374         1.573741         0.155873
 H        -0.642457         0.149885        -0.967196
 H         4.114634        -1.035258         0.115809
 H         2.208563         0.193511         2.138183
 H         2.810487         2.558328         1.959976
 H         4.242895         1.593053         1.168894
 H         2.325240         2.365712        -1.860771
 H         3.985223         1.807500        -1.697364
 H         2.676757        -0.140818        -2.085022
