19
Iteration:   148charge 0 multiplicity 1
 C        -0.058929         0.493347        -0.068034
 C         1.421463         0.106840         0.082831
 O         1.908703        -1.353655         0.138926
 C         3.105084        -0.466973        -0.004497
 C         2.468164         0.441534         1.085297
 C         3.054820         1.865738         1.148251
 O         2.753133         2.700767        -0.085136
 C         3.031857         1.815337        -1.215969
 C         2.428020         0.343637        -1.072820
 H        -0.621622        -0.090780         0.704742
 H        -0.074361         1.608777         0.033266
 H        -0.449629         0.335079        -1.071084
 H         4.118184        -0.950462         0.006639
 H         2.290167        -0.121467         2.075230
 H         2.818046         2.432395         2.054298
 H         4.169402         1.761871         1.154166
 H         2.693215         2.347085        -2.107392
 H         4.103539         1.639628        -1.192828
 H         2.200169        -0.157239        -2.067622
