19
Iteration:  3212
 C        -0.110137         0.450239        -0.013138
 C         1.361122         0.128202         0.071261
 O         1.869900        -1.269866         0.120909
 C         3.208380        -0.510106         0.063568
 C         2.591204         0.532394         1.127384
 C         3.028300         1.955829         1.142440
 O         2.663194         2.560582        -0.154448
 C         3.068908         1.721818        -1.265202
 C         2.503126         0.351285        -1.046621
 H        -0.814216         0.131782         0.743628
 H        -0.008584         1.631948        -0.072066
 H        -0.492802         0.125014        -0.965345
 H         4.051687        -1.097667        -0.127874
 H         2.475192         0.194554         2.166370
 H         2.590464         2.594754         1.912771
 H         4.039370         2.140697         1.391327
 H         2.657765         2.105258        -2.181153
 H         4.155154         1.653063        -1.404799
 H         2.248385        -0.139204        -1.972378
