19
Iteration:  2936
 C        -0.137896         0.363952        -0.026036
 C         1.376654         0.071098        -0.064108
 O         1.892201        -1.288928         0.105415
 C         3.078270        -0.494844         0.159111
 C         2.480925         0.479467         1.147041
 C         3.141286         1.919015         1.101147
 O         2.825805         2.696739        -0.113444
 C         2.933873         1.848457        -1.274544
 C         2.565552         0.343138        -1.035868
 H        -0.463857         0.025320         1.034383
 H        -0.437744         1.390037        -0.065817
 H        -0.827101        -0.273248        -0.710479
 H         4.006389        -1.028569         0.017958
 H         2.192904         0.100720         2.139679
 H         2.601183         2.494910         1.941745
 H         4.304218         2.022793         1.149336
 H         2.558832         2.233999        -2.188175
 H         4.064709         1.977956        -1.476424
 H         2.496752        -0.278217        -1.887394
