19
Iteration:  4290charge 0 multiplicity 1
 C        -0.074590         0.486422        -0.033115
 C         1.397526         0.130804         0.023999
 O         1.862439        -1.299689         0.126959
 C         3.187217        -0.463797         0.118952
 C         2.443505         0.556494         1.144711
 C         3.109685         1.905465         1.095188
 O         2.719335         2.553349        -0.113956
 C         2.933894         1.790498        -1.258714
 C         2.585039         0.300476        -1.095409
 H        -0.517865         0.066560         0.877276
 H        -0.236727         1.585857        -0.306683
 H        -0.549816        -0.002128        -0.876733
 H         4.195408        -1.030776         0.295954
 H         2.248596         0.224426         2.148522
 H         2.752166         2.668747         1.968033
 H         4.157858         1.774826         1.376511
 H         2.274857         2.263540        -2.098523
 H         4.004877         1.839201        -1.677894
 H         2.618119        -0.375813        -1.952879
