19
Iteration:   143
 C        -0.035271         0.490437        -0.097249
 C         1.371692         0.095941         0.087435
 O         1.890562        -1.406966         0.142731
 C         3.101517        -0.495581        -0.014471
 C         2.502023         0.478873         1.091054
 C         3.092026         1.890723         1.154712
 O         2.749344         2.712780        -0.057048
 C         3.030002         1.845425        -1.228337
 C         2.415063         0.304644        -1.072887
 H        -0.682701        -0.017351         0.599272
 H        -0.128637         1.564860         0.102892
 H        -0.492822         0.345411        -1.119272
 H         4.163708        -0.930966        -0.008393
 H         2.451646        -0.105724         2.010943
 H         2.757458         2.581672         1.980878
 H         4.189443         1.917143         1.245467
 H         2.764265         2.487698        -2.139256
 H         4.137496         1.657965        -1.148999
 H         2.118716        -0.171371        -2.025695
