19
Iteration:  4936
 C        -0.108193         0.433446         0.085477
 C         1.426361         0.164688        -0.010588
 O         1.974734        -1.358679         0.122564
 C         3.054032        -0.437833         0.150408
 C         2.399602         0.519480         1.090383
 C         3.011093         1.915420         1.043388
 O         2.794175         2.569536        -0.193628
 C         3.109266         1.786659        -1.310334
 C         2.489679         0.371979        -1.022153
 H        -0.586874        -0.027594         0.967476
 H        -0.086343         1.475268         0.449774
 H        -0.695978         0.234062        -0.793289
 H         4.077097        -0.904545         0.069399
 H         2.278967         0.301296         2.161697
 H         2.268957         2.510427         1.723550
 H         3.926735         1.980573         1.541244
 H         2.696477         2.194074        -2.239289
 H         4.231403         1.611978        -1.270179
 H         2.254949        -0.247428        -1.891378
