19
Iteration:  2731charge 0 multiplicity 1
 C         0.053777         0.376933        -0.026260
 C         1.418353         0.122670        -0.114528
 O         1.880251        -1.290272         0.091141
 C         3.110642        -0.466679         0.197121
 C         2.459033         0.498035         1.141828
 C         3.021730         1.909857         1.123034
 O         2.846009         2.665015        -0.086020
 C         2.861630         1.777868        -1.289625
 C         2.514187         0.327611        -1.061465
 H        -0.327930         0.055418         0.937420
 H        -0.094757         1.521967         0.009770
 H        -0.614196         0.069902        -0.814428
 H         4.057512        -0.898581         0.133951
 H         2.189345         0.149445         2.162977
 H         2.560377         2.418475         1.963604
 H         4.135874         1.809583         1.209109
 H         2.121550         2.261930        -1.995209
 H         3.933142         1.934082        -1.486755
 H         2.396148        -0.322416        -1.937784
