19
Iteration:  3968charge 0 multiplicity 1
 C        -0.120812         0.396866        -0.026409
 C         1.391513         0.154433         0.059631
 O         1.902946        -1.310958         0.137886
 C         3.094710        -0.530909         0.164244
 C         2.517914         0.525138         1.048557
 C         3.031045         1.922753         1.093575
 O         2.836863         2.671743        -0.165008
 C         2.971217         1.793855        -1.280723
 C         2.504198         0.306520        -1.069928
 H        -0.448261         0.049030         0.958389
 H        -0.274207         1.468685        -0.050936
 H        -0.523553        -0.097128        -0.929370
 H         3.960250        -1.106554         0.561730
 H         2.246929         0.413072         2.182987
 H         2.590093         2.525240         2.058208
 H         4.199382         1.950970         1.373293
 H         2.405637         2.345615        -2.051825
 H         3.997986         1.703726        -1.586276
 H         2.578415        -0.297737        -2.046276
