19
Iteration:  4722
 C        -0.057826         0.436084         0.133127
 C         1.461035         0.188585        -0.028475
 O         1.824615        -1.295226         0.095761
 C         3.105678        -0.504653         0.139473
 C         2.475531         0.496759         1.097196
 C         2.888530         1.920690         1.112537
 O         2.771402         2.608575        -0.180038
 C         3.089556         1.721835        -1.342057
 C         2.611907         0.403579        -1.053917
 H        -0.414099         0.051524         1.125123
 H        -0.377113         1.410628         0.210453
 H        -0.464258        -0.140733        -0.717840
 H         4.075815        -0.952413         0.218032
 H         2.355248         0.080312         2.122888
 H         2.222968         2.601659         1.828391
 H         4.025401         1.861083         1.497727
 H         2.731841         2.224088        -2.267162
 H         4.239527         1.773939        -1.587960
 H         2.419787        -0.324957        -1.873952
