19
Iteration:  1075
 C        -0.126323         0.507127         0.060792
 C         1.357896         0.038423         0.038111
 O         1.946763        -1.332668         0.034622
 C         3.124758        -0.502951        -0.035455
 C         2.537138         0.462293         1.058807
 C         2.929459         1.953326         1.183959
 O         2.801998         2.655007        -0.077362
 C         3.148437         1.767107        -1.176487
 C         2.442258         0.370864        -1.076600
 H        -0.654513         0.368088         0.909782
 H        -0.153797         1.617430        -0.186878
 H        -0.606580         0.009992        -0.684931
 H         3.990987        -1.196645        -0.089645
 H         2.441371        -0.071621         2.023759
 H         2.089213         2.399414         1.675624
 H         3.851445         2.212357         1.693556
 H         2.800827         2.472250        -1.947643
 H         4.155152         1.576534        -1.445042
 H         2.392402        -0.150715        -1.995514
