19
Iteration:  2204
 C        -0.069434         0.481432        -0.038742
 C         1.454297         0.091271        -0.025269
 O         1.887128        -1.315802         0.057933
 C         3.118347        -0.569054         0.217429
 C         2.458071         0.442520         1.112823
 C         3.052799         1.890165         1.156922
 O         2.767305         2.659647        -0.093180
 C         2.960606         1.892792        -1.275109
 C         2.586465         0.372922        -1.104610
 H        -0.645140        -0.058930         0.812890
 H        -0.198166         1.622114        -0.041419
 H        -0.648606         0.122492        -0.971976
 H         4.062598        -1.269350         0.489076
 H         2.154062         0.012829         2.097241
 H         2.762300         2.437774         1.980690
 H         4.120551         1.824868         1.294979
 H         2.190507         2.204774        -1.962879
 H         3.873459         2.159199        -1.814514
 H         2.374286        -0.229848        -1.934557
