19
Iteration:  2737
 C         0.034210         0.430734        -0.046018
 C         1.467047         0.130287        -0.058143
 O         1.870872        -1.315345         0.112445
 C         3.128216        -0.477174         0.155877
 C         2.413674         0.522177         1.158643
 C         3.059446         1.881224         1.117095
 O         2.808042         2.615741        -0.097227
 C         2.860420         1.797761        -1.302366
 C         2.555065         0.353752        -1.070127
 H        -0.349701         0.024905         0.916359
 H        -0.190758         1.475286        -0.091533
 H        -0.679720         0.012505        -0.797196
 H         4.292884        -0.804921         0.141678
 H         2.189686         0.010059         2.099126
 H         2.517710         2.576616         1.845493
 H         4.119015         1.816641         1.452805
 H         2.070016         2.365126        -1.846719
 H         3.931987         1.865301        -1.577541
 H         2.269385        -0.263410        -1.939619
