19
Iteration:   494charge 0 multiplicity 1
 C        -0.098368         0.524764         0.014905
 C         1.343957         0.124718         0.040931
 O         1.954414        -1.407930         0.060859
 C         3.079273        -0.482508         0.112322
 C         2.400384         0.471951         1.122987
 C         3.074664         1.823383         1.103543
 O         2.785075         2.657737        -0.100671
 C         2.973029         1.862495        -1.246775
 C         2.596782         0.392950        -1.094810
 H        -0.589513        -0.083328         0.814302
 H        -0.065555         1.469320         0.279205
 H        -0.494886         0.318646        -1.030718
 H         4.042706        -0.976020         0.277866
 H         2.389590         0.156132         2.124615
 H         2.690592         2.416664         1.931608
 H         4.167301         1.573453         1.183937
 H         2.385346         2.156300        -2.079422
 H         4.021573         1.969758        -1.531590
 H         2.429659        -0.061082        -2.062936
