19
Iteration:  3229charge 0 multiplicity 1
 C         0.014091         0.482385        -0.004973
 C         1.482885         0.165948         0.040110
 O         1.817987        -1.326406         0.127978
 C         3.062617        -0.512442         0.051919
 C         2.526347         0.517639         1.111230
 C         3.032842         2.049178         1.054756
 O         2.687898         2.616264        -0.128263
 C         3.005635         1.735449        -1.186031
 C         2.540927         0.281613        -1.085538
 H        -0.407339        -0.298434         0.722753
 H        -0.376950         1.409012         0.149436
 H        -0.466441         0.107811        -0.955604
 H         4.091435        -1.065919         0.281863
 H         2.384298        -0.093099         2.030615
 H         2.666066         2.574481         1.995852
 H         4.217323         2.050920         1.295034
 H         2.501351         2.185565        -2.094161
 H         4.132489         1.748025        -1.282605
 H         2.419980        -0.338295        -2.010186
