19
Iteration:  3563charge 0 multiplicity 1
 C        -0.082305         0.388787         0.019798
 C         1.379125         0.201916         0.003280
 O         1.852113        -1.316339         0.101642
 C         3.113373        -0.461136         0.217757
 C         2.552936         0.494402         1.121715
 C         3.063844         1.928353         1.091126
 O         2.800506         2.608911        -0.107241
 C         2.962374         1.754857        -1.351943
 C         2.569727         0.345172        -1.091923
 H        -0.670558         0.319835         0.962556
 H        -0.295331         1.405003        -0.348998
 H        -0.627112        -0.230396        -0.745346
 H         4.123624        -1.096978         0.280657
 H         2.278702         0.278358         2.140603
 H         2.481932         2.398804         1.831687
 H         4.032380         2.096730         1.523734
 H         2.276389         2.268188        -2.030585
 H         3.995956         1.914049        -1.782373
 H         2.503423        -0.313232        -1.952266
