19
Iteration:  4850charge 0 multiplicity 1
 C        -0.010463         0.519012        -0.085563
 C         1.380956         0.068202         0.031863
 O         1.878986        -1.379572         0.146202
 C         3.135022        -0.435703         0.172981
 C         2.524716         0.538096         1.096564
 C         3.087826         1.956801         1.055743
 O         2.691596         2.589207        -0.131540
 C         2.935364         1.745278        -1.234258
 C         2.521579         0.360017        -1.051856
 H        -0.548246         0.585219         0.911897
 H        -0.003077         1.500062        -0.552498
 H        -0.701126        -0.181598        -0.683523
 H         4.045632        -1.004451         0.345837
 H         2.479931         0.021427         2.114183
 H         2.757822         2.640089         1.768937
 H         4.293235         1.888828         1.315948
 H         2.340065         2.314126        -2.002348
 H         4.056453         1.653483        -1.386164
 H         2.491141        -0.244219        -1.984218
