19
Iteration:  1551charge 0 multiplicity 1
 C         0.031264         0.439901        -0.013525
 C         1.390902         0.118967        -0.050459
 O         1.873380        -1.253306         0.053098
 C         3.113589        -0.497340         0.096330
 C         2.439247         0.511260         1.129535
 C         3.054470         1.896384         1.168179
 O         2.698584         2.560439        -0.052132
 C         3.003967         1.826689        -1.236971
 C         2.522964         0.367427        -1.115085
 H        -0.307090         0.109925         1.005797
 H        -0.078950         1.447243        -0.010021
 H        -0.624051        -0.061127        -0.766475
 H         4.129467        -0.995183         0.032294
 H         2.273870        -0.003959         2.084882
 H         2.609845         2.455921         1.929737
 H         4.175271         1.826061         1.482646
 H         2.687446         2.421557        -2.048542
 H         4.141463         1.655661        -1.492142
 H         2.404208        -0.177200        -2.063700
