19
Iteration:  2147charge 0 multiplicity 1
 C        -0.089042         0.479304        -0.081417
 C         1.434190         0.140723         0.001481
 O         1.897248        -1.336334         0.153244
 C         3.086612        -0.481225         0.031124
 C         2.614824         0.491030         1.090798
 C         3.034139         1.938539         1.222396
 O         2.700594         2.548194        -0.057636
 C         3.044833         1.815862        -1.228880
 C         2.479336         0.337284        -1.121472
 H        -0.709741         0.308594         0.796367
 H        -0.176609         1.690921        -0.271706
 H        -0.556667         0.102012        -1.040399
 H         4.147288        -0.994734        -0.149883
 H         2.281752         0.136541         2.059803
 H         2.278703         2.291197         1.808475
 H         4.052894         2.102635         1.501800
 H         2.627345         2.364870        -2.011642
 H         4.153276         1.777197        -1.247630
 H         2.324666        -0.281867        -2.030671
