19
Iteration:  4999charge 0 multiplicity 1
 C        -0.109268         0.349851        -0.073140
 C         1.371051         0.183675         0.114000
 O         1.845646        -1.290221         0.206087
 C         3.118002        -0.489486         0.104168
 C         2.521141         0.500197         1.168318
 C         3.075521         1.893669         1.060465
 O         2.845820         2.645752        -0.146881
 C         2.965818         1.821277        -1.339551
 C         2.532370         0.332738        -1.043887
 H        -0.717054        -0.245294         0.587491
 H        -0.397992         1.500939        -0.080256
 H        -0.254156         0.125648        -1.105803
 H         4.103660        -1.076379         0.162938
 H         2.429636         0.098996         2.152990
 H         2.453398         2.502381         1.777727
 H         4.215805         1.924246         1.216391
 H         2.293943         2.215734        -2.093895
 H         3.976186         2.035046        -1.626300
 H         2.385503        -0.320237        -1.908657
