19
Iteration:  4052charge 0 multiplicity 1
 C         0.016467         0.468156         0.002030
 C         1.407142         0.181787         0.110068
 O         1.841928        -1.284687         0.169159
 C         3.105431        -0.527484         0.063554
 C         2.552299         0.474824         1.094093
 C         2.986767         1.961591         1.058356
 O         2.648231         2.588783        -0.155591
 C         3.117887         1.755820        -1.277622
 C         2.497762         0.354627        -1.078639
 H        -0.485780         0.017306         0.937571
 H        -0.107195         1.607320        -0.108961
 H        -0.549967        -0.111264        -0.853106
 H         4.053517        -1.050769         0.111399
 H         2.486323         0.092857         2.181532
 H         2.357485         2.416815         1.825319
 H         4.156202         2.094073         1.330346
 H         2.865848         2.248037        -2.212729
 H         4.168630         1.667571        -1.250926
 H         2.247406        -0.326717        -1.932532
