19
Iteration:   287
 C        -0.054610         0.421245         0.053523
 C         1.398530         0.174924        -0.032257
 O         1.768641        -1.294424         0.032307
 C         3.130842        -0.622274         0.133379
 C         2.436340         0.498532         1.082033
 C         3.084006         1.891050         1.059895
 O         2.796204         2.637531        -0.059537
 C         2.969534         1.849312        -1.203525
 C         2.698002         0.399567        -1.051847
 H        -0.540400        -0.244152         0.771526
 H        -0.475024         1.344470         0.187642
 H        -0.607223         0.091516        -0.951524
 H         4.142708        -1.194952         0.167097
 H         2.288434         0.122746         2.120300
 H         2.780533         2.539640         1.941619
 H         4.192579         1.853388         1.120168
 H         2.080622         2.232787        -1.825731
 H         3.885295         2.126326        -1.675853
 H         2.510995        -0.156970        -2.006250
