19
Iteration:   182charge 0 multiplicity 1
 C        -0.085619         0.432755         0.089781
 C         1.445503         0.167736        -0.032322
 O         1.773948        -1.307814        -0.041980
 C         3.094534        -0.514018         0.121222
 C         2.498808         0.452264         1.153795
 C         3.048933         1.971219         1.261622
 O         2.746163         2.601410        -0.103545
 C         3.051139         1.812364        -1.317366
 C         2.657505         0.356213        -1.168267
 H        -0.390683         0.081534         1.157812
 H        -0.372604         1.585199         0.114547
 H        -0.587440        -0.155496        -0.555139
 H         3.899974        -1.125625         0.322068
 H         2.127593         0.042753         2.091444
 H         2.529242         2.435157         2.034342
 H         4.133328         1.959436         1.418709
 H         2.464580         2.195355        -2.074863
 H         4.046271         2.043053        -1.643883
 H         2.544458        -0.349248        -1.939837
