19
Iteration:  3181charge 0 multiplicity 1
 C        -0.024959         0.447459         0.058829
 C         1.462877         0.145437         0.016928
 O         1.862297        -1.349334         0.174584
 C         3.184216        -0.520567         0.021914
 C         2.441469         0.545414         1.103461
 C         2.950803         1.949532         1.131110
 O         2.773165         2.642505        -0.141318
 C         3.006609         1.761309        -1.268573
 C         2.533067         0.324546        -1.080071
 H        -0.587663         0.394720         1.014519
 H        -0.131304         1.568061        -0.406847
 H        -0.534755        -0.171334        -0.719534
 H         4.077019        -1.046601        -0.089734
 H         2.257116         0.142652         2.092257
 H         2.450029         2.525655         2.002711
 H         4.072900         1.815402         1.397035
 H         2.421319         2.154535        -2.175644
 H         4.114107         1.749821        -1.461983
 H         2.292447        -0.111322        -2.077671
