19
Iteration:  1888charge 0 multiplicity 1
 C         0.026431         0.490998        -0.015553
 C         1.477795         0.133214        -0.024811
 O         1.907429        -1.353656         0.069060
 C         3.124107        -0.523676         0.194389
 C         2.380626         0.496167         1.105310
 C         3.024913         1.828629         1.128052
 O         2.803196         2.600501        -0.097724
 C         2.928224         1.867143        -1.319536
 C         2.519675         0.435597        -1.021624
 H        -0.453057        -0.136554         0.848536
 H        -0.091091         1.571554         0.051443
 H        -0.463087         0.243555        -1.028208
 H         3.969136        -0.979367         0.409361
 H         2.129066        -0.096042         2.065389
 H         2.444965         2.416843         1.974222
 H         4.076679         1.780999         1.271475
 H         2.167600         2.318497        -2.118955
 H         3.986046         1.907745        -1.726759
 H         2.333555        -0.163331        -1.934664
