19
Iteration:  1149
 C        -0.050026         0.409998        -0.025394
 C         1.415353         0.102364        -0.048477
 O         1.889235        -1.303484        -0.011926
 C         3.081924        -0.504357         0.209024
 C         2.454109         0.481737         1.114421
 C         3.127013         1.834161         1.092043
 O         2.732354         2.672475        -0.043802
 C         2.951384         1.809050        -1.218217
 C         2.554160         0.385047        -1.024113
 H        -0.682599        -0.053720         0.756676
 H        -0.006014         1.624771         0.172543
 H        -0.598720         0.308144        -1.005379
 H         4.010529        -0.961780         0.174061
 H         1.929699         0.112940         2.037612
 H         3.096074         2.606220         1.906275
 H         4.252542         1.680667         1.055130
 H         2.367576         2.336937        -1.996564
 H         4.008948         1.837610        -1.414489
 H         2.513695        -0.063500        -2.076684
