19
Iteration:  4507charge 0 multiplicity 1
 C        -0.116492         0.465854         0.018568
 C         1.371637         0.148234         0.026178
 O         1.938259        -1.308979         0.120035
 C         3.119601        -0.497295         0.107260
 C         2.456965         0.471730         1.141355
 C         3.022366         1.976188         1.131773
 O         2.757980         2.558077        -0.180744
 C         3.014282         1.785329        -1.289360
 C         2.625962         0.350322        -1.085153
 H        -0.445706         0.345940         1.011558
 H        -0.540377         1.535532        -0.149186
 H        -0.694585        -0.015332        -0.709848
 H         4.189072        -0.943875         0.292527
 H         2.174352         0.036953         2.097949
 H         2.614137         2.544893         1.893694
 H         4.138309         1.919533         1.164984
 H         2.228509         2.193179        -1.924518
 H         4.225815         1.833739        -1.471551
 H         2.289068        -0.292222        -1.937434
