19
Iteration:   932charge 0 multiplicity 1
 C         0.086816         0.479558         0.127275
 C         1.480811         0.154682        -0.032577
 O         1.828940        -1.330140        -0.010406
 C         3.118704        -0.531249         0.074789
 C         2.401765         0.477122         1.078216
 C         2.910910         1.868728         1.153165
 O         2.740797         2.621003        -0.095245
 C         3.055898         1.833816        -1.265603
 C         2.526343         0.347949        -1.020224
 H        -0.254144         0.331584         1.103340
 H         0.108571         1.675940        -0.047358
 H        -0.555875        -0.079097        -0.557770
 H         4.170429        -1.108225         0.289188
 H         2.073415         0.103581         2.115183
 H         2.368826         2.504392         1.904956
 H         4.008812         1.853129         1.203054
 H         2.353356         2.158368        -2.210775
 H         4.185283         2.017713        -1.547329
 H         2.692122        -0.130781        -2.038583
