19
Iteration:  4532
 C         0.001661         0.388636         0.080772
 C         1.373618         0.085409         0.025421
 O         1.909905        -1.298047         0.111319
 C         3.094472        -0.430563         0.113006
 C         2.481310         0.533028         1.044911
 C         2.928477         1.947321         1.109048
 O         2.829119         2.609357        -0.175725
 C         3.060555         1.757712        -1.256114
 C         2.446719         0.373588        -1.072481
 H        -0.505312         0.292007         1.032296
 H        -0.143711         1.450609        -0.038828
 H        -0.529896        -0.045677        -0.769476
 H         4.088405        -0.971599         0.100601
 H         2.220846         0.178442         2.050271
 H         2.327209         2.493495         1.940550
 H         4.091121         1.838201         1.341043
 H         2.560114         2.359651        -2.090263
 H         4.175390         1.487548        -1.292223
 H         2.496389        -0.372874        -1.874957
