19
Iteration:  3713charge 0 multiplicity 1
 C        -0.036208         0.399999        -0.023083
 C         1.429798         0.155660         0.080848
 O         1.864904        -1.337164         0.180639
 C         3.107593        -0.441729         0.035711
 C         2.488734         0.539714         1.126133
 C         3.001832         1.958892         1.129664
 O         2.824669         2.605122        -0.121245
 C         3.013311         1.739876        -1.327701
 C         2.482857         0.364498        -1.070147
 H        -0.551102         0.330347         0.898125
 H        -0.320371         1.412629        -0.336975
 H        -0.399773        -0.243924        -0.774799
 H         3.971444        -1.007326         0.063508
 H         2.436003        -0.112941         2.056439
 H         2.197516         2.475822         1.710060
 H         4.133163         2.053985         1.526223
 H         2.429565         2.234152        -2.073626
 H         4.098668         1.733507        -1.544235
 H         2.365596        -0.214479        -1.980971
