19
Iteration:  3966charge 0 multiplicity 1
 C        -0.130160         0.411444        -0.035820
 C         1.381711         0.156019         0.070455
 O         1.910936        -1.320614         0.150335
 C         3.102291        -0.540499         0.172188
 C         2.520769         0.514385         1.025360
 C         3.052173         1.929508         1.088965
 O         2.835986         2.677437        -0.161368
 C         2.953590         1.796368        -1.279311
 C         2.503470         0.308250        -1.065741
 H        -0.486211         0.004292         0.941764
 H        -0.347002         1.386767        -0.115542
 H        -0.549353        -0.096870        -0.951464
 H         3.944410        -1.069149         0.551691
 H         2.253361         0.374263         2.183762
 H         2.654081         2.545738         2.033673
 H         4.123798         1.964453         1.424761
 H         2.448330         2.401553        -2.041066
 H         4.091075         1.652081        -1.582118
 H         2.558069        -0.226584        -2.077790
