19
Iteration:   185
 C        -0.054007         0.434072         0.116122
 C         1.424627         0.167509        -0.046939
 O         1.767236        -1.299175        -0.041067
 C         3.099334        -0.540329         0.113671
 C         2.510732         0.452322         1.163623
 C         3.025579         1.954229         1.265983
 O         2.746768         2.649894        -0.101251
 C         3.060611         1.780827        -1.312780
 C         2.667441         0.352504        -1.170488
 H        -0.447555         0.110129         1.130404
 H        -0.444216         1.577325         0.077276
 H        -0.622117        -0.265103        -0.589619
 H         3.902055        -1.208187         0.272020
 H         2.116547         0.017599         2.038146
 H         2.521077         2.571096         2.049143
 H         4.144189         2.011380         1.403079
 H         2.386108         2.167137        -2.054089
 H         4.077477         2.026168        -1.673781
 H         2.577923        -0.279868        -2.025289
