19
Iteration:   406
 C        -0.105542         0.520689         0.136618
 C         1.339722         0.060304        -0.012229
 O         1.970793        -1.367650        -0.024381
 C         3.128468        -0.459409         0.069465
 C         2.407978         0.525528         1.118392
 C         3.039969         1.877261         1.127304
 O         2.768556         2.573279        -0.088808
 C         3.078180         1.780572        -1.201759
 C         2.532135         0.430397        -1.102970
 H        -0.544045         0.479227         1.148033
 H        -0.229015         1.498818        -0.151510
 H        -0.910303         0.026016        -0.586968
 H         4.151021        -0.936584         0.008053
 H         2.144123         0.087814         2.075228
 H         2.530127         2.580116         1.865465
 H         4.058570         1.617188         1.405893
 H         2.551573         2.242980        -2.038703
 H         4.204492         1.847893        -1.506323
 H         2.412517        -0.011987        -2.121322
