19
Iteration:   570
 C        -0.142317         0.486894         0.011874
 C         1.387737         0.076739         0.084612
 O         1.909866        -1.345175         0.098308
 C         3.054946        -0.492784        -0.030449
 C         2.614203         0.412685         1.055047
 C         2.951000         1.996841         1.086889
 O         2.744644         2.643551        -0.073434
 C         3.147075         1.769836        -1.133795
 C         2.440886         0.423145        -1.097812
 H        -0.605112         0.323790         1.023980
 H        -0.098992         1.416895        -0.323234
 H        -0.506723        -0.259984        -0.794585
 H         4.041243        -0.919926        -0.037996
 H         2.454936        -0.110617         1.939871
 H         2.507966         2.500143         1.915631
 H         4.031816         1.981524         1.349426
 H         2.896343         2.213066        -2.004002
 H         4.235750         1.586443        -1.196812
 H         2.369815        -0.033403        -2.077807
