19
Iteration:   354
 C        -0.001251         0.452906        -0.014411
 C         1.447689         0.143361         0.029163
 O         1.796342        -1.307121         0.081348
 C         3.131557        -0.614772        -0.049916
 C         2.648742         0.443661         1.104748
 C         2.955491         2.024311         1.176906
 O         2.787494         2.652488        -0.053414
 C         3.012982         1.807581        -1.206408
 C         2.447343         0.362134        -1.079842
 H        -0.550722         0.165845         0.918570
 H        -0.186412         1.474680        -0.118396
 H        -0.526921        -0.109649        -0.831281
 H         3.961423        -1.333317        -0.136278
 H         2.469447        -0.164431         1.974139
 H         2.290469         2.506574         1.863229
 H         3.966729         2.097744         1.622298
 H         2.603206         2.372722        -2.087618
 H         4.042047         1.660891        -1.269382
 H         2.127206        -0.073483        -1.997195
