19
Iteration:  1742
 C        -0.033001         0.503364         0.015607
 C         1.416985         0.188613         0.042506
 O         1.935054        -1.350989         0.007065
 C         3.135603        -0.526494        -0.030261
 C         2.513665         0.448312         1.087386
 C         2.900975         2.023943         1.216957
 O         2.749197         2.617527        -0.093856
 C         3.059124         1.720360        -1.171550
 C         2.503698         0.297049        -1.052042
 H        -0.491638         0.433967         0.928898
 H        -0.071464         1.695687         0.011338
 H        -0.535663         0.075611        -0.821761
 H         4.077186        -1.097659        -0.065390
 H         2.403237        -0.042449         2.060589
 H         2.196365         2.577619         1.931393
 H         4.011431         2.000294         1.484613
 H         2.575954         2.210479        -2.026941
 H         4.048383         1.715249        -1.538486
 H         2.122617        -0.148504        -1.973005
