19
Iteration:  1215
 C        -0.011410         0.410981        -0.022954
 C         1.464448         0.192906         0.014891
 O         1.819658        -1.371786         0.121606
 C         3.114952        -0.499920        -0.023139
 C         2.537807         0.452466         1.078851
 C         2.970965         1.901794         1.208027
 O         2.793690         2.619310        -0.057425
 C         3.043622         1.817252        -1.213549
 C         2.451024         0.423684        -1.103370
 H        -0.627731         0.266436         0.858412
 H        -0.085152         1.621770        -0.289828
 H        -0.399783        -0.171797        -0.878647
 H         4.032095        -0.968439        -0.106733
 H         2.273365         0.036980         2.079335
 H         2.331257         2.397633         2.018726
 H         4.089931         2.071718         1.491765
 H         2.564967         2.361994        -2.047866
 H         4.100649         1.723810        -1.451298
 H         2.296210        -0.142476        -2.055139
