19
Iteration:  1784charge 0 multiplicity 1
 C        -0.046809         0.405590         0.106238
 C         1.432746         0.135911        -0.023250
 O         1.851303        -1.288323         0.059481
 C         3.096802        -0.555749        -0.005938
 C         2.404058         0.513433         1.069673
 C         2.924487         1.915920         1.175260
 O         2.765591         2.639307        -0.093649
 C         3.121961         1.782427        -1.235649
 C         2.597272         0.382478        -1.088550
 H        -0.235108         0.304907         1.171915
 H        -0.311713         1.590258        -0.110391
 H        -0.491555        -0.403289        -0.430361
 H         4.121002        -1.079178         0.182854
 H         2.133203         0.001450         1.980156
 H         2.496205         2.581270         1.887391
 H         3.970006         1.899092         1.417048
 H         2.634283         2.185991        -2.130808
 H         4.229526         1.928954        -1.383117
 H         2.460886        -0.034260        -2.108202
