19
Iteration:   850charge 0 multiplicity 1
 C        -0.159856         0.383161        -0.028943
 C         1.338003         0.127403         0.012025
 O         1.848001        -1.314016         0.079525
 C         3.117364        -0.544899         0.056742
 C         2.531263         0.510470         1.081310
 C         3.093286         1.920886         1.083562
 O         2.805547         2.630028        -0.030715
 C         3.031800         1.836755        -1.248273
 C         2.580949         0.401067        -1.032844
 H        -0.612340        -0.218976         0.822815
 H        -0.448867         1.407935         0.060275
 H        -0.550357        -0.030445        -0.935728
 H         4.011997        -1.017891         0.281391
 H         2.405592         0.017239         2.017378
 H         2.583072         2.402289         1.910930
 H         4.166677         2.042810         1.402983
 H         2.439389         2.271014        -2.081948
 H         4.087903         2.052325        -1.453843
 H         2.314546        -0.049381        -1.980690
