19
Iteration:  1952charge 0 multiplicity 1
 C         0.070988         0.365251        -0.010225
 C         1.433647         0.160173         0.057264
 O         1.806355        -1.237205         0.118394
 C         3.077786        -0.496463        -0.053617
 C         2.474744         0.453307         1.093832
 C         2.948695         1.893174         1.134746
 O         2.673358         2.624997        -0.112620
 C         3.156669         1.789910        -1.186452
 C         2.492741         0.397131        -1.075689
 H        -0.336855         0.281246         1.009518
 H        -0.119465         1.412491        -0.132759
 H        -0.334292        -0.393810        -0.692045
 H         3.930840        -1.051045         0.085754
 H         2.505150        -0.048281         2.077447
 H         2.519072         2.633050         1.903588
 H         4.032299         1.813180         1.342196
 H         3.009860         2.296288        -2.163909
 H         4.253537         1.701350        -1.144875
 H         2.237572        -0.044691        -1.990531
