19
Iteration:  4687
 C        -0.062988         0.562118        -0.059858
 C         1.396791         0.152105         0.052500
 O         1.935081        -1.393308         0.169471
 C         3.110116        -0.510899         0.064262
 C         2.557117         0.528496         1.033444
 C         2.988372         1.967605         1.129431
 O         2.693979         2.630355        -0.139745
 C         3.004449         1.732565        -1.227982
 C         2.502591         0.302609        -1.021339
 H        -0.472468         0.311396         0.907414
 H        -0.130867         1.551882        -0.437991
 H        -0.649613        -0.127854        -0.746627
 H         4.092560        -0.924001         0.127542
 H         2.451266         0.141123         2.092699
 H         2.648520         2.602739         2.002127
 H         4.173361         1.795934         1.303512
 H         2.547858         2.154392        -2.183739
 H         4.122398         1.548942        -1.244703
 H         2.436590        -0.112916        -2.032351
