19
Iteration:  2701charge 0 multiplicity 1
 C        -0.158547         0.331360         0.002513
 C         1.359010         0.190774         0.055513
 O         1.879939        -1.369877         0.135576
 C         3.105741        -0.465534         0.063802
 C         2.472838         0.444337         1.124595
 C         3.000906         1.964365         1.084505
 O         2.833313         2.612255        -0.111294
 C         3.073651         1.862714        -1.277823
 C         2.573960         0.373177        -1.055146
 H        -0.633392        -0.170912         0.861918
 H        -0.317563         1.510560         0.200063
 H        -0.508711         0.008388        -1.005354
 H         4.220231        -0.944485        -0.159535
 H         2.402956         0.185963         2.171718
 H         2.485736         2.442689         1.883705
 H         4.112794         2.002971         1.282668
 H         2.625397         2.216165        -2.162026
 H         4.122782         2.145491        -1.535442
 H         2.193854        -0.141722        -1.991121
