19
Iteration:  2268
 C        -0.093911         0.371150         0.027868
 C         1.388862         0.118011         0.060441
 O         1.819693        -1.328915         0.058190
 C         3.122294        -0.464456         0.028775
 C         2.550872         0.516972         1.054681
 C         2.917903         1.964837         1.159423
 O         2.836698         2.678556        -0.100036
 C         3.121799         1.799880        -1.167009
 C         2.474212         0.334196        -1.104234
 H        -0.490165        -0.113338         0.860573
 H        -0.489814         1.349537        -0.328749
 H        -0.399323        -0.248042        -0.814855
 H         4.059380        -1.097596         0.147817
 H         2.514849         0.046273         2.039461
 H         2.358597         2.499171         1.859017
 H         4.088203         1.976466         1.387160
 H         2.773295         2.381707        -1.934006
 H         4.233193         1.545400        -1.242652
 H         2.309366        -0.064947        -2.116150
