19
Iteration:  4346charge 0 multiplicity 1
 C        -0.118535         0.329792         0.007768
 C         1.362301         0.127327         0.042094
 O         1.890863        -1.245987         0.162497
 C         3.075229        -0.469735         0.004551
 C         2.505485         0.476828         1.087097
 C         3.025865         1.969795         1.152036
 O         2.840108         2.649757        -0.172354
 C         3.114175         1.754883        -1.220669
 C         2.432642         0.331354        -1.072602
 H        -0.606193         0.134555         0.979141
 H        -0.172255         1.462574         0.004795
 H        -0.539600        -0.239674        -0.879466
 H         4.092231        -0.895616         0.062412
 H         2.544697         0.139000         2.098627
 H         2.228227         2.595440         1.797095
 H         4.050476         2.070284         1.497139
 H         2.581880         2.198149        -2.138676
 H         4.271834         1.627423        -1.354586
 H         2.333744        -0.242648        -2.005568
