19
Iteration:  2958charge 0 multiplicity 1
 C        -0.022709         0.318306         0.033490
 C         1.470719         0.160404         0.063360
 O         1.811024        -1.320653         0.097957
 C         3.130573        -0.464428         0.101953
 C         2.425927         0.560320         1.053881
 C         3.061285         1.943881         1.085800
 O         2.741450         2.590390        -0.086740
 C         3.044722         1.794529        -1.202807
 C         2.524630         0.379317        -1.132049
 H        -0.580853         0.293430         1.027527
 H        -0.216944         1.361849        -0.266576
 H        -0.655010        -0.330405        -0.670935
 H         4.065893        -0.996348         0.222649
 H         2.135367         0.203746         2.051084
 H         2.730723         2.601752         1.994930
 H         4.240317         1.780240         1.087347
 H         2.594160         2.208402        -2.078055
 H         4.137143         1.837849        -1.586431
 H         2.331744        -0.034074        -2.095126
