19
Iteration:  1485
 C        -0.057392         0.462841        -0.052629
 C         1.420700         0.136719         0.010777
 O         1.874180        -1.310064         0.100276
 C         3.143692        -0.464060         0.032332
 C         2.441716         0.506943         1.099166
 C         3.065334         1.850975         1.146690
 O         2.767624         2.592310        -0.033344
 C         2.945264         1.816617        -1.240448
 C         2.546903         0.355655        -1.075095
 H        -0.555878        -0.160922         0.780953
 H        -0.165809         1.472806         0.194114
 H        -0.565535         0.319369        -1.067704
 H         4.171331        -0.924761         0.188700
 H         2.297387         0.110025         2.132479
 H         2.664523         2.423306         1.912274
 H         4.150873         1.784831         1.311765
 H         2.491924         2.281771        -2.072041
 H         3.986984         1.990291        -1.596380
 H         2.425119        -0.251379        -1.995038
