19
Iteration:  2762
 C        -0.100543         0.469271        -0.077200
 C         1.391768         0.121181         0.060753
 O         1.934441        -1.261625         0.138866
 C         3.114441        -0.493122         0.096418
 C         2.613628         0.474089         1.143334
 C         3.004308         1.880460         1.110307
 O         2.742572         2.615786        -0.089533
 C         2.938356         1.768625        -1.287668
 C         2.541419         0.342552        -1.075908
 H        -0.808168         0.300786         0.722034
 H        -0.026846         1.459553        -0.360126
 H        -0.572353        -0.013757        -0.908491
 H         4.025225        -0.961791        -0.030362
 H         2.553038        -0.055368         2.117977
 H         2.516161         2.446585         1.980436
 H         4.075273         1.981155         1.437564
 H         2.216435         2.360435        -2.018838
 H         4.013773         1.898772        -1.546160
 H         2.383331        -0.289577        -1.912360
