19
Iteration:   309charge 0 multiplicity 1
 C        -0.014126         0.441699        -0.014866
 C         1.364220         0.128454        -0.067886
 O         1.885945        -1.282806         0.028294
 C         3.102232        -0.472105         0.128229
 C         2.474329         0.529567         1.204854
 C         3.154367         1.839641         1.160981
 O         2.729359         2.595869        -0.064667
 C         3.000996         1.791134        -1.265731
 C         2.473685         0.387882        -1.113694
 H        -0.541890        -0.136722         0.748351
 H        -0.195924         1.415445         0.240344
 H        -0.739446         0.238710        -0.911121
 H         4.130261        -1.001767         0.161456
 H         2.120008         0.111004         2.167803
 H         2.905045         2.459431         2.067066
 H         4.266215         1.798256         1.135725
 H         2.392867         2.390304        -2.003496
 H         4.046479         1.773779        -1.490288
 H         2.348260        -0.260921        -2.010718
