19
Iteration:  1620
 C         0.037858         0.400685        -0.001612
 C         1.421780         0.117634        -0.014116
 O         1.877889        -1.269346         0.062143
 C         3.092922        -0.453419        -0.064643
 C         2.500382         0.511248         1.099653
 C         2.928342         1.977922         1.204573
 O         2.855270         2.592308        -0.050891
 C         3.012947         1.764076        -1.190279
 C         2.406707         0.380235        -1.097017
 H        -0.358197         0.106777         0.881964
 H        -0.438216         1.489314        -0.043813
 H        -0.377111        -0.222585        -0.695843
 H         3.959182        -1.229593        -0.156260
 H         2.451140        -0.073367         1.985687
 H         2.278121         2.473879         2.009406
 H         3.908235         2.068054         1.814826
 H         2.799472         2.194105        -2.187965
 H         4.204680         1.550319        -1.199549
 H         2.278006        -0.347413        -1.923404
