19
Iteration:   538charge 0 multiplicity 1
 C         0.030910         0.470435         0.083794
 C         1.498650         0.177055         0.043983
 O         1.809447        -1.297952         0.059114
 C         3.067415        -0.480324        -0.012029
 C         2.564091         0.444510         1.066083
 C         2.887536         1.956920         1.179005
 O         2.756404         2.576255        -0.063477
 C         3.095940         1.765249        -1.241737
 C         2.490089         0.362640        -1.122238
 H        -0.479701         0.206440         1.054527
 H        -0.240698         1.401909        -0.121176
 H        -0.332326        -0.231114        -0.781603
 H         4.002821        -1.033941         0.074253
 H         2.335293        -0.073322         1.948895
 H         2.177416         2.469236         1.808083
 H         3.992475         2.111610         1.481950
 H         2.670030         2.356471        -2.000841
 H         4.154379         1.669965        -1.403749
 H         2.296687        -0.136314        -2.045976
