19
Iteration:  3152charge 0 multiplicity 1
 C        -0.097433         0.401868         0.059395
 C         1.454185         0.141992        -0.082260
 O         1.824319        -1.381061         0.101551
 C         3.117907        -0.448910         0.161000
 C         2.523851         0.529441         1.169115
 C         3.014140         1.953022         1.123256
 O         2.843049         2.615818        -0.155699
 C         2.953805         1.816276        -1.295530
 C         2.559407         0.349805        -1.080192
 H        -0.475931         0.390834         1.081154
 H        -0.316281         1.307363        -0.276322
 H        -0.655074        -0.265128        -0.616921
 H         4.119273        -1.026339         0.272067
 H         2.445935         0.167270         2.213359
 H         2.302206         2.334573         1.784230
 H         4.023481         1.955185         1.429063
 H         2.345061         2.229801        -2.108001
 H         3.998576         1.885777        -1.578891
 H         2.473762        -0.107302        -2.085329
