19
Iteration:  3144
 C        -0.063520         0.398314         0.047911
 C         1.436481         0.124062         0.019770
 O         1.831629        -1.332900         0.127977
 C         3.140404        -0.466664         0.118649
 C         2.488923         0.498280         1.125631
 C         2.955228         1.885085         1.101575
 O         2.840893         2.624011        -0.139550
 C         2.991625         1.809325        -1.352994
 C         2.559044         0.424847        -1.027655
 H        -0.527460         0.206006         1.038224
 H        -0.366879         1.474732        -0.390987
 H        -0.452386        -0.387573        -0.626387
 H         4.178892        -0.967120         0.056142
 H         2.128224         0.069497         2.098263
 H         2.556418         2.653190         1.840376
 H         4.049008         1.918682         1.411227
 H         2.414753         2.311250        -2.080109
 H         4.009388         1.806455        -1.819410
 H         2.399904        -0.270597        -1.827794
