19
Iteration:  3265
 C        -0.128591         0.452661         0.055463
 C         1.348758         0.144150         0.005481
 O         1.883289        -1.345940         0.126819
 C         3.127952        -0.406877         0.144651
 C         2.457109         0.474930         1.123133
 C         3.006071         1.908106         1.077184
 O         2.753932         2.582309        -0.137743
 C         3.039885         1.822578        -1.322702
 C         2.643543         0.338727        -1.044084
 H        -0.664894        -0.138654         0.749264
 H        -0.292518         1.534933         0.302033
 H        -0.424075         0.257100        -0.938167
 H         4.043891        -1.053389         0.307786
 H         2.402012        -0.010955         2.116898
 H         2.719291         2.639148         1.818676
 H         4.217099         1.844022         0.965108
 H         2.439840         2.167504        -2.122206
 H         4.110455         1.943383        -1.646947
 H         2.559474        -0.226813        -1.937592
