19
Iteration:  2093charge 0 multiplicity 1
 C        -0.138007         0.347950         0.051607
 C         1.364618         0.150483        -0.110357
 O         1.871273        -1.322714         0.004406
 C         3.086103        -0.507014         0.111158
 C         2.466220         0.481588         1.106473
 C         3.012310         2.002665         1.152603
 O         2.784999         2.585809        -0.094106
 C         3.095325         1.788004        -1.225827
 C         2.596464         0.459972        -1.065732
 H        -0.421549         0.139606         1.094285
 H        -0.452941         1.474583         0.344031
 H        -0.813503        -0.294674        -0.589129
 H         4.178580        -1.104661         0.352639
 H         2.339066         0.065042         2.104978
 H         2.539199         2.587630         1.892952
 H         4.111142         1.833295         1.360341
 H         2.765173         2.302453        -2.086054
 H         4.218938         1.724796        -1.406403
 H         2.483405        -0.069392        -1.973498
