19
Iteration:  1570
 C        -0.011721         0.460941         0.127827
 C         1.396340         0.127175        -0.028773
 O         1.871572        -1.374973        -0.015498
 C         3.138653        -0.478374         0.049644
 C         2.425716         0.467987         1.054091
 C         2.914221         1.925070         1.138695
 O         2.788741         2.651921        -0.080866
 C         3.071191         1.793950        -1.196516
 C         2.578211         0.369929        -1.089614
 H        -0.485573         0.388741         1.179939
 H        -0.117818         1.523100        -0.070714
 H        -0.683679        -0.135560        -0.574654
 H         4.075940        -0.939216         0.244642
 H         2.083071         0.057833         2.056916
 H         2.529531         2.435937         2.015060
 H         4.003851         1.929984         1.442834
 H         2.453192         2.171331        -2.058358
 H         4.196660         1.790214        -1.378148
 H         2.475733        -0.104714        -2.079794
