19
Iteration:  3661
 C        -0.076750         0.422209         0.099144
 C         1.424261         0.118663        -0.036314
 O         1.827372        -1.272141         0.151547
 C         3.119832        -0.583268         0.142068
 C         2.534485         0.518713         1.128602
 C         2.995592         1.956057         1.080262
 O         2.692825         2.600085        -0.182105
 C         3.102068         1.783899        -1.290372
 C         2.590469         0.375075        -1.103044
 H        -0.614974        -0.071868         0.983886
 H        -0.232341         1.502748         0.246375
 H        -0.825923         0.155725        -0.763296
 H         4.203455        -1.004858         0.200855
 H         2.157374         0.049284         2.038944
 H         2.563711         2.522317         1.895151
 H         4.083955         2.089025         1.204776
 H         2.624583         2.233840        -2.177335
 H         4.217839         1.840133        -1.392049
 H         2.464077        -0.110539        -2.087000
