19
Iteration:  1330charge 0 multiplicity 1
 C         0.032465         0.502900        -0.096609
 C         1.401184         0.127921         0.023182
 O         1.896663        -1.337602         0.085473
 C         3.101917        -0.413861         0.078326
 C         2.483890         0.501990         1.136864
 C         3.074804         1.866440         1.163968
 O         2.786348         2.571758        -0.059481
 C         2.912755         1.817441        -1.239614
 C         2.471916         0.368272        -1.067806
 H        -0.592332        -0.188311         0.659402
 H        -0.124485         1.599200         0.154376
 H        -0.340402         0.216705        -1.179606
 H         4.084650        -1.094945         0.229403
 H         2.160902        -0.100389         2.005447
 H         2.588635         2.357350         1.994316
 H         4.218598         1.879149         1.325976
 H         2.317853         2.331730        -2.077753
 H         3.959453         1.748050        -1.573207
 H         2.299103        -0.195974        -2.023099
