19
Iteration:  3700
 C        -0.020026         0.414991         0.021952
 C         1.415400         0.113413        -0.003425
 O         1.901123        -1.278906         0.132890
 C         3.130425        -0.497651         0.128953
 C         2.473822         0.488385         1.107681
 C         2.979603         1.908162         1.150468
 O         2.795050         2.601509        -0.221472
 C         3.012065         1.790834        -1.285644
 C         2.440508         0.389784        -1.023353
 H        -0.288014         0.162003         0.991405
 H        -0.074479         1.520560        -0.222160
 H        -0.542310        -0.165733        -0.619422
 H         4.086907        -0.966151        -0.036468
 H         2.111247         0.315508         2.161066
 H         2.423311         2.614856         1.883018
 H         4.111358         1.999708         1.646740
 H         2.709115         2.286348        -2.214341
 H         4.123620         1.544660        -1.525073
 H         2.263954        -0.218624        -1.902433
