19
Iteration:   769charge 0 multiplicity 1
 C         0.026508         0.424193        -0.028551
 C         1.428686         0.141222         0.051240
 O         1.820488        -1.317060         0.124725
 C         3.079846        -0.525335         0.001084
 C         2.624180         0.509431         1.044533
 C         2.944096         1.937605         1.195092
 O         2.803743         2.577700        -0.057771
 C         3.006845         1.851240        -1.207618
 C         2.444733         0.383655        -1.108405
 H        -0.617394         0.118934         0.777157
 H        -0.066279         1.600285        -0.275133
 H        -0.235042        -0.226846        -0.924799
 H         4.125467        -1.074000        -0.045283
 H         2.457388        -0.032933         2.019229
 H         2.179501         2.317506         1.918352
 H         4.038412         1.996902         1.489496
 H         2.510576         2.315941        -1.997000
 H         4.116878         1.810901        -1.424451
 H         2.090320        -0.109539        -2.065586
