19
Iteration:  3084
 C        -0.054979         0.338912        -0.028996
 C         1.426775         0.123880         0.055424
 O         1.842113        -1.276759         0.197261
 C         3.037753        -0.545502         0.087621
 C         2.587543         0.544414         1.077042
 C         3.010267         1.923214         1.084029
 O         2.750344         2.650824        -0.103694
 C         3.036316         1.806692        -1.264535
 C         2.533261         0.390396        -1.082517
 H        -0.611081        -0.256452         0.672208
 H        -0.313355         1.290437         0.130971
 H        -0.341611         0.089318        -1.035963
 H         4.003611        -1.075759         0.141034
 H         2.334025         0.305949         2.098839
 H         2.658821         2.581672         1.848248
 H         4.118723         1.780299         1.040397
 H         2.553926         2.345299        -2.150777
 H         4.085465         1.643618        -1.374573
 H         2.353003        -0.119349        -2.090755
