19
Iteration:  3641
 C         0.081379         0.460736         0.023371
 C         1.430589         0.197899         0.083544
 O         1.830379        -1.265208         0.130630
 C         3.087414        -0.492112         0.088943
 C         2.508388         0.539345         1.069353
 C         3.018918         1.923818         1.095924
 O         2.669504         2.586907        -0.179633
 C         3.031865         1.743973        -1.245760
 C         2.504147         0.309309        -1.058078
 H        -0.356511        -0.334028         0.774113
 H        -0.335681         1.400485         0.292785
 H        -0.297315         0.077297        -1.032407
 H         4.153461        -1.134869         0.164552
 H         2.385202         0.225605         2.087752
 H         2.427511         2.535685         1.813255
 H         4.175602         1.894407         1.250120
 H         2.687436         2.281545        -2.190839
 H         4.200067         1.636463        -1.234621
 H         2.249248        -0.369406        -1.921925
