19
Iteration:   856
 C        -0.124209         0.360908        -0.007933
 C         1.406253         0.110291         0.023131
 O         1.817954        -1.310672         0.071499
 C         3.063535        -0.528920         0.062626
 C         2.563942         0.460978         1.059926
 C         3.058571         1.961789         1.158992
 O         2.789901         2.670537        -0.049952
 C         3.071710         1.828447        -1.274403
 C         2.540325         0.361545        -1.014882
 H        -0.579601        -0.168694         0.793449
 H        -0.522022         1.496035        -0.066484
 H        -0.405857        -0.039116        -1.023012
 H         4.065579        -1.176834        -0.056991
 H         2.421298        -0.023353         2.077494
 H         2.576021         2.546858         1.992821
 H         4.148320         2.183644         1.292481
 H         2.519341         2.342958        -2.082828
 H         4.174605         1.943496        -1.430747
 H         2.161392         0.026795        -2.019356
