19
Iteration:  3094charge 0 multiplicity 1
 C        -0.132755         0.327900        -0.063708
 C         1.401968         0.137014         0.055236
 O         1.850464        -1.291537         0.234935
 C         3.121421        -0.529583         0.004995
 C         2.479952         0.511298         1.108688
 C         3.122589         1.968677         1.087248
 O         2.754617         2.702525        -0.137907
 C         3.055895         1.786001        -1.187968
 C         2.524570         0.331534        -1.095833
 H        -0.664646        -0.229031         0.680944
 H        -0.285830         1.349834         0.052399
 H        -0.503158         0.039734        -1.022205
 H         4.012378        -1.097404         0.070074
 H         2.507118        -0.050132         2.016045
 H         2.677159         2.570952         1.896198
 H         4.148959         2.057133         1.332494
 H         2.522081         2.223963        -2.103858
 H         4.103595         1.872830        -1.428563
 H         2.162751        -0.153096        -2.037537
