19
Iteration:  1578charge 0 multiplicity 1
 C        -0.088732         0.475891         0.132510
 C         1.373514         0.118024         0.013020
 O         1.884970        -1.363222        -0.000750
 C         3.132424        -0.536818         0.058640
 C         2.430517         0.427059         1.069038
 C         2.950700         1.904112         1.149011
 O         2.791528         2.668807        -0.121040
 C         3.058537         1.834918        -1.196453
 C         2.622734         0.376210        -1.086566
 H        -0.344264         0.303604         1.189309
 H        -0.239710         1.654947        -0.207583
 H        -0.683682        -0.102040        -0.558765
 H         4.177980        -0.859431         0.173162
 H         2.315679        -0.098099         2.036645
 H         2.122434         2.487776         1.812647
 H         3.925045         1.903347         1.516946
 H         2.766427         2.423632        -2.135936
 H         4.057144         1.745167        -1.514831
 H         2.569211         0.005918        -2.129380
