19
Iteration:   117
 C        -0.047696         0.440958        -0.134229
 C         1.400240         0.134342         0.060544
 O         1.803767        -1.253316         0.128011
 C         3.114403        -0.570915        -0.000016
 C         2.685613         0.459405         1.109164
 C         3.070846         1.903803         1.181246
 O         2.747453         2.641429        -0.082310
 C         2.942191         1.772294        -1.192929
 C         2.508032         0.376450        -1.031712
 H        -0.736079        -0.148999         0.571200
 H        -0.296606         1.595860         0.108140
 H        -0.448116         0.259883        -1.098718
 H         3.935137        -1.170609        -0.049250
 H         2.463477        -0.113038         1.974905
 H         2.520290         2.463514         1.889170
 H         4.116806         2.210894         1.346610
 H         2.429930         2.234778        -1.976215
 H         4.037821         1.772763        -1.478641
 H         2.321214         0.039517        -2.010395
