19
Iteration:  3659charge 0 multiplicity 1
 C        -0.081750         0.409987         0.093450
 C         1.447161         0.131097        -0.045778
 O         1.827110        -1.262101         0.154618
 C         3.133203        -0.579772         0.147473
 C         2.532159         0.509312         1.135527
 C         2.988928         1.961512         1.058391
 O         2.691938         2.598724        -0.171925
 C         3.103288         1.778734        -1.290227
 C         2.568531         0.375540        -1.108382
 H        -0.572467        -0.070917         0.928749
 H        -0.192020         1.521550         0.249913
 H        -0.766338         0.189001        -0.710444
 H         4.071202        -1.058025         0.251383
 H         2.177344        -0.020199         2.059300
 H         2.629591         2.504248         1.901892
 H         4.033304         2.109966         1.229861
 H         2.665591         2.221145        -2.152972
 H         4.164224         1.827163        -1.398655
 H         2.430957        -0.097059        -2.062844
