19
Iteration:  1607charge 0 multiplicity 1
 C        -0.011942         0.397465         0.075224
 C         1.432506         0.163875         0.073347
 O         1.811859        -1.288526         0.032751
 C         3.127744        -0.472093        -0.036734
 C         2.545143         0.469427         1.059576
 C         2.855870         1.940788         1.211556
 O         2.833555         2.592697        -0.079389
 C         3.094373         1.743672        -1.197460
 C         2.479424         0.387134        -1.112429
 H        -0.457769         0.188416         1.018624
 H        -0.119995         1.407788        -0.272827
 H        -0.440643        -0.192514        -0.718581
 H         4.207428        -0.846101        -0.036881
 H         2.388934        -0.028991         2.012241
 H         2.048541         2.437807         1.682891
 H         3.908025         2.099309         1.665095
 H         2.653154         2.348416        -1.956022
 H         4.248797         1.653376        -1.497240
 H         2.205724         0.051899        -2.120113
