19
Iteration:   890
 C        -0.041118         0.459023         0.051442
 C         1.415783         0.153460         0.056169
 O         1.895353        -1.298570         0.096812
 C         3.102322        -0.470247        -0.024758
 C         2.560741         0.448847         1.019468
 C         2.921100         1.963266         1.163389
 O         2.711294         2.569096        -0.088910
 C         3.180805         1.759150        -1.170637
 C         2.447214         0.406573        -1.100320
 H        -0.613382         0.151765         0.915996
 H        -0.233446         1.647709        -0.120990
 H        -0.496448        -0.156525        -0.717449
 H         4.104477        -1.050978        -0.286065
 H         2.448944        -0.028397         2.031519
 H         2.223175         2.406709         1.914442
 H         3.972384         1.891362         1.490815
 H         2.875762         2.307034        -2.024947
 H         4.251279         1.476971        -1.353910
 H         1.965438        -0.062298        -2.004602
