19
Iteration:  2856charge 0 multiplicity 1
 C        -0.000438         0.411897         0.111663
 C         1.424031         0.117620        -0.054048
 O         1.860356        -1.331850         0.107915
 C         3.162512        -0.525312         0.110052
 C         2.470285         0.435131         1.102197
 C         2.900052         1.939389         1.118164
 O         2.835206         2.662194        -0.149879
 C         3.031202         1.829988        -1.312136
 C         2.472975         0.400046        -1.051632
 H        -0.535035        -0.155122         0.944599
 H        -0.186379         1.514079         0.163046
 H        -0.618116         0.152084        -0.837835
 H         4.226199        -0.954140         0.227390
 H         2.256071         0.115164         2.115647
 H         2.370521         2.442431         1.897390
 H         4.006554         2.068602         1.444135
 H         2.522097         2.173888        -2.144511
 H         4.164183         1.689189        -1.483888
 H         2.384832        -0.085948        -2.041230
