19
Iteration:   934
 C         0.094876         0.473456         0.106934
 C         1.496085         0.159699        -0.024829
 O         1.818580        -1.329220        -0.008948
 C         3.096631        -0.527057         0.071131
 C         2.396930         0.465750         1.106295
 C         2.928930         1.873943         1.155935
 O         2.740599         2.624939        -0.095339
 C         3.020932         1.846596        -1.279085
 C         2.557223         0.340639        -1.029927
 H        -0.286104         0.277986         1.129583
 H         0.105117         1.703905        -0.051887
 H        -0.521380        -0.085245        -0.540128
 H         4.155542        -1.061684         0.278250
 H         2.076200         0.097795         2.106902
 H         2.373028         2.456470         1.908193
 H         4.019429         1.868761         1.230951
 H         2.447344         2.122563        -2.183185
 H         4.178480         1.954619        -1.584393
 H         2.647298        -0.114487        -1.999682
