19
Iteration:  2871charge 0 multiplicity 1
 C        -0.114688         0.427505         0.000753
 C         1.406004         0.093017         0.125566
 O         1.901683        -1.370439         0.144241
 C         3.058662        -0.447778         0.032993
 C         2.539440         0.522875         1.053011
 C         2.969090         1.947703         1.095603
 O         2.858789         2.639067        -0.108950
 C         3.000458         1.813158        -1.237492
 C         2.569450         0.327205        -1.109158
 H        -0.574653        -0.076066         0.837486
 H        -0.235032         1.444059         0.202989
 H        -0.495831         0.167890        -0.951431
 H         3.959618        -1.013739        -0.016499
 H         2.464719         0.084737         2.064688
 H         2.093614         2.451138         1.627959
 H         3.894472         1.998931         1.607719
 H         2.304753         2.386821        -1.948308
 H         4.079530         1.818033        -1.591400
 H         2.453125        -0.214733        -2.024250
