19
Iteration:    95charge 0 multiplicity 1
 C         0.050293         0.448416         0.022555
 C         1.462621         0.230073         0.023980
 O         1.812868        -1.280700         0.073182
 C         3.114464        -0.473733         0.121764
 C         2.477447         0.492076         1.122205
 C         3.025415         1.811072         1.142726
 O         2.748021         2.502518        -0.040333
 C         2.998250         1.835897        -1.343105
 C         2.525314         0.400778        -1.119145
 H        -0.484512        -0.188271         0.819520
 H        -0.387348         1.560760         0.007935
 H        -0.333692         0.046707        -0.914086
 H         4.000382        -1.010173         0.156109
 H         2.145034         0.046282         2.066620
 H         2.656479         2.467183         1.908201
 H         4.143260         1.852407         1.303668
 H         2.327293         2.404075        -1.926305
 H         4.056521         2.045825        -1.693468
 H         2.303229        -0.160315        -1.996125
