19
Iteration:   206
 C        -0.010393         0.412713         0.065925
 C         1.446692         0.154263         0.001751
 O         1.794896        -1.290169         0.061201
 C         3.103074        -0.585588         0.029708
 C         2.488161         0.463050         1.015295
 C         2.940600         1.913792         1.067453
 O         2.819617         2.633809        -0.086170
 C         3.045595         1.844058        -1.170100
 C         2.561416         0.407416        -1.037697
 H        -0.288311         0.322336         1.160231
 H        -0.200611         1.574127        -0.114787
 H        -0.623343        -0.311128        -0.487967
 H         3.966982        -1.145655         0.051413
 H         2.325078         0.138446         2.010655
 H         2.274658         2.281946         1.826117
 H         3.970617         1.909229         1.485802
 H         2.598924         2.263087        -2.005514
 H         4.117746         1.867239        -1.388358
 H         2.371014        -0.161702        -1.903878
