19
Iteration:  4871charge 0 multiplicity 1
 C        -0.006943         0.518417        -0.052394
 C         1.425540         0.159695         0.055225
 O         1.889090        -1.288234         0.182463
 C         3.161086        -0.527889         0.042338
 C         2.501910         0.533703         1.134259
 C         2.989011         1.928476         1.135584
 O         2.657940         2.582191        -0.160442
 C         3.027968         1.731871        -1.282785
 C         2.512443         0.294110        -1.056720
 H        -0.536126         0.624375         0.915496
 H         0.021434         1.495499        -0.517622
 H        -0.509703        -0.307088        -0.576723
 H         4.155249        -0.999452        -0.071553
 H         2.348499         0.038287         2.121524
 H         2.631645         2.531998         1.928306
 H         4.187742         2.104111         1.369176
 H         2.553403         2.244592        -2.139815
 H         4.201358         1.671378        -1.243762
 H         2.103004        -0.218868        -1.934992
