19
Iteration:  1416
 C        -0.200691         0.416284         0.015996
 C         1.379967         0.193870         0.072650
 O         1.891296        -1.362545         0.135770
 C         3.110912        -0.460649        -0.047998
 C         2.586367         0.461767         1.012831
 C         2.944004         1.904252         1.177187
 O         2.762385         2.601512        -0.064340
 C         3.159289         1.844564        -1.214791
 C         2.535123         0.337610        -1.103295
 H        -0.549384         0.275675         1.048084
 H        -0.402061         1.451517        -0.242415
 H        -0.787861        -0.127058        -0.712004
 H         3.981131        -1.016330        -0.124921
 H         2.561518        -0.023395         2.035565
 H         2.179795         2.359231         1.787555
 H         3.939162         2.120885         1.571806
 H         3.168388         2.481243        -2.125553
 H         4.328509         1.803360        -1.335598
 H         2.188881         0.025763        -2.086935
