19
Iteration:  4083charge 0 multiplicity 1
 C        -0.050140         0.450926        -0.004515
 C         1.392904         0.164645         0.014706
 O         1.847249        -1.325171         0.124886
 C         3.109645        -0.468615         0.150205
 C         2.458909         0.527728         1.103684
 C         3.081321         1.947334         1.077190
 O         2.731318         2.606632        -0.086970
 C         3.000629         1.756770        -1.335765
 C         2.586733         0.277361        -1.089890
 H        -0.312414         0.128179         1.040218
 H        -0.376865         1.582604        -0.102384
 H        -0.686789        -0.066002        -0.775573
 H         4.117336        -0.929863         0.373082
 H         2.343993         0.167707         2.111495
 H         2.749795         2.500829         1.918714
 H         4.125894         2.064279         1.289261
 H         2.398672         2.264240        -2.104805
 H         4.067403         1.944480        -1.568400
 H         2.598461        -0.484970        -1.870202
