19
Iteration:  1386
 C        -0.010299         0.403201        -0.024618
 C         1.450230         0.121644         0.000873
 O         1.822410        -1.288952         0.021455
 C         3.145586        -0.478731         0.054617
 C         2.458837         0.502342         1.128926
 C         3.027557         1.925149         1.157274
 O         2.741476         2.594755        -0.085707
 C         3.067579         1.815885        -1.227180
 C         2.467202         0.385632        -1.034609
 H        -0.323995         0.163678         1.133871
 H        -0.098296         1.465020        -0.152384
 H        -0.653713        -0.301039        -0.776399
 H         4.123425        -1.172788        -0.068431
 H         2.206777        -0.007481         2.101045
 H         2.592243         2.526382         1.968404
 H         4.127030         1.954812         1.336726
 H         2.732361         2.399905        -2.148550
 H         4.140967         1.602380        -1.130971
 H         2.093655        -0.071877        -1.994477
