19
Iteration:   293charge 0 multiplicity 1
 C        -0.096733         0.405979         0.035571
 C         1.454109         0.198073        -0.038104
 O         1.800286        -1.309877         0.005192
 C         3.070548        -0.537184         0.156370
 C         2.450535         0.482380         1.028127
 C         3.150643         1.903835         1.094865
 O         2.773630         2.619753        -0.040477
 C         2.916064         1.827767        -1.221120
 C         2.647510         0.368560        -1.016422
 H        -0.375125        -0.286975         0.854858
 H        -0.327786         1.571648         0.275749
 H        -0.460587         0.148243        -0.964908
 H         3.954565        -1.075682         0.340633
 H         2.272432         0.098938         2.032175
 H         2.743401         2.519426         1.896702
 H         4.255111         1.779369         1.201587
 H         2.301473         2.193144        -2.018637
 H         3.976834         2.027285        -1.652697
 H         2.607965        -0.174656        -1.965799
