19
Iteration:  2151
 C        -0.108209         0.514440        -0.090584
 C         1.455808         0.143457         0.033064
 O         1.892947        -1.336386         0.125190
 C         3.121988        -0.493065         0.035451
 C         2.588616         0.520885         1.081443
 C         3.030357         1.951103         1.220087
 O         2.709704         2.559395        -0.032516
 C         2.996809         1.774073        -1.236763
 C         2.507447         0.307601        -1.143905
 H        -0.776931         0.237232         0.803229
 H        -0.109316         1.540254        -0.317064
 H        -0.636625         0.203407        -1.032946
 H         4.125355        -0.980933        -0.142241
 H         2.384176         0.071959         2.095112
 H         2.296307         2.356290         2.062600
 H         4.077317         2.143015         1.552848
 H         2.568365         2.442136        -2.076245
 H         4.100820         1.680466        -1.321607
 H         2.461014        -0.337428        -1.981054
