19
Iteration:   625charge 0 multiplicity 1
 C        -0.089424         0.469453        -0.048361
 C         1.413267         0.109462         0.035480
 O         1.811933        -1.320130         0.062517
 C         3.132485        -0.493847         0.105446
 C         2.507163         0.486335         1.116799
 C         3.092461         1.882185         1.137735
 O         2.788173         2.625958        -0.033268
 C         2.916177         1.842151        -1.330591
 C         2.664437         0.375842        -1.058359
 H        -0.506142        -0.229071         0.769485
 H        -0.359965         1.425862         0.084759
 H        -0.669089        -0.029006        -0.975566
 H         4.071771        -0.993591         0.271265
 H         2.079485         0.191584         2.005984
 H         2.649373         2.456818         1.915448
 H         4.157424         1.769473         1.361109
 H         2.186231         2.151267        -1.926324
 H         4.000629         2.069490        -1.654690
 H         2.399818        -0.212019        -1.909359
