19
Iteration:  4533charge 0 multiplicity 1
 C         0.001223         0.392026         0.077772
 C         1.375424         0.076416         0.025068
 O         1.905528        -1.288586         0.116546
 C         3.096272        -0.438902         0.107682
 C         2.485043         0.525400         1.044687
 C         2.922527         1.952365         1.101297
 O         2.835442         2.611372        -0.178613
 C         3.059972         1.757339        -1.242089
 C         2.452581         0.378378        -1.076593
 H        -0.533709         0.286114         1.043530
 H        -0.129026         1.437326         0.009046
 H        -0.539851        -0.100375        -0.787347
 H         4.074648        -0.938385         0.111719
 H         2.224616         0.165369         2.056509
 H         2.292440         2.484776         1.966151
 H         4.114684         1.854200         1.329667
 H         2.581327         2.345191        -2.105529
 H         4.139708         1.508271        -1.304529
 H         2.450586        -0.370543        -1.877015
