19
Iteration:  1379
 C         0.033875         0.392249        -0.002465
 C         1.425881         0.161078        -0.068875
 O         1.805819        -1.320764        -0.001812
 C         3.107702        -0.538784         0.118542
 C         2.466740         0.512012         1.137202
 C         3.042106         1.952564         1.140777
 O         2.750357         2.626668        -0.065037
 C         3.020955         1.803920        -1.219943
 C         2.492479         0.392389        -1.061352
 H        -0.276663         0.118198         0.937032
 H        -0.085666         1.491376        -0.103108
 H        -0.495478        -0.184169        -0.700591
 H         4.135513        -0.952578         0.034436
 H         2.332576         0.004675         2.068034
 H         2.596844         2.475052         2.083355
 H         4.174681         1.918395         1.302827
 H         2.523368         2.252916        -2.049957
 H         4.127060         1.707959        -1.237252
 H         2.232637        -0.278082        -1.888894
