19
Iteration:  4556
 C        -0.081664         0.371286         0.050439
 C         1.384834         0.196672         0.067894
 O         1.849928        -1.386076         0.183159
 C         3.124260        -0.535177         0.008649
 C         2.560363         0.540635         1.061934
 C         2.913726         2.009458         1.159105
 O         2.828797         2.667186        -0.169282
 C         3.141389         1.777260        -1.313194
 C         2.480210         0.356261        -1.073164
 H        -0.581182        -0.007003         0.976999
 H        -0.455019         1.346558         0.159822
 H        -0.496390        -0.088230        -0.915818
 H         3.953355        -1.176219        -0.121513
 H         2.447464         0.117738         2.084644
 H         2.031632         2.535993         1.792972
 H         3.995095         2.055838         1.701667
 H         2.579426         2.331057        -2.110253
 H         4.224687         1.630095        -1.446781
 H         2.414361        -0.286670        -1.977495
