19
Iteration:   970charge 0 multiplicity 1
 C        -0.123108         0.464889        -0.157264
 C         1.398758         0.151675         0.050367
 O         1.873070        -1.300236         0.168081
 C         3.104204        -0.497014         0.006598
 C         2.581556         0.492800         1.088347
 C         3.131561         1.868750         1.151489
 O         2.726505         2.594499        -0.036151
 C         2.937054         1.802263        -1.214779
 C         2.556628         0.359103        -1.064077
 H        -0.811885         0.047409         0.688388
 H        -0.227695         1.523120        -0.132061
 H        -0.463011         0.189139        -1.187434
 H         4.090382        -0.821539         0.009996
 H         2.410245         0.069613         2.039644
 H         2.616151         2.348745         1.982277
 H         4.199191         1.955030         1.381582
 H         2.444933         2.326790        -1.957162
 H         4.078672         1.631738        -1.390239
 H         2.275750        -0.138744        -1.961297
