19
Iteration:  3844charge 0 multiplicity 1
 C        -0.154671         0.546854         0.046896
 C         1.448120         0.086955         0.130798
 O         1.867994        -1.303117         0.108093
 C         3.177707        -0.508627         0.074018
 C         2.567687         0.523211         1.073992
 C         2.920757         1.994474         1.104021
 O         2.705968         2.545784        -0.153756
 C         3.141682         1.729888        -1.280522
 C         2.538668         0.293266        -1.102752
 H        -0.766062         0.175865         0.882416
 H        -0.060661         1.643788         0.065155
 H        -0.634571         0.249045        -0.877885
 H         4.133795        -0.944752         0.003383
 H         2.317914         0.050391         2.115479
 H         2.217649         2.546475         1.923665
 H         3.912664         2.225062         1.533152
 H         2.690424         2.149116        -2.173208
 H         4.146419         1.897894        -1.377853
 H         2.426646        -0.323262        -2.015295
