19
Iteration:   855
 C        -0.131769         0.367875        -0.007704
 C         1.395540         0.109762         0.019991
 O         1.822615        -1.311429         0.072376
 C         3.069141        -0.530745         0.063132
 C         2.560038         0.468425         1.059880
 C         3.064120         1.956540         1.147758
 O         2.793639         2.664517        -0.044126
 C         3.068676         1.827094        -1.272838
 C         2.548784         0.364336        -1.012384
 H        -0.579165        -0.175608         0.798800
 H        -0.515966         1.455052        -0.057321
 H        -0.425221        -0.039759        -1.036323
 H         4.061277        -1.157308        -0.013765
 H         2.420446        -0.025915         2.065097
 H         2.588101         2.530093         1.983010
 H         4.130272         2.189105         1.298693
 H         2.484751         2.354638        -2.118498
 H         4.160371         1.975099        -1.422832
 H         2.167614         0.035666        -2.011764
