19
Iteration:  2302charge 0 multiplicity 1
 C        -0.081224         0.481517         0.100978
 C         1.393995         0.152072        -0.048449
 O         1.911698        -1.327736         0.057283
 C         3.136055        -0.458217         0.081333
 C         2.424548         0.442805         1.097707
 C         2.835899         1.895651         1.117601
 O         2.829498         2.572857        -0.125698
 C         3.091969         1.844381        -1.230343
 C         2.599936         0.364832        -1.091931
 H        -0.489007         0.208364         1.083628
 H        -0.379318         1.535166         0.134370
 H        -0.585168        -0.205796        -0.606542
 H         4.157311        -1.002961         0.325574
 H         2.257409         0.050213         2.119871
 H         2.402074         2.469802         1.841800
 H         3.957102         1.804033         1.537169
 H         2.570771         2.264996        -2.006945
 H         4.149563         1.903756        -1.690208
 H         2.534157        -0.076364        -2.065551
