19
Iteration:   821
 C         0.022465         0.417017        -0.027830
 C         1.379861         0.095890        -0.072065
 O         1.898570        -1.294215         0.065893
 C         3.120113        -0.430425         0.109723
 C         2.336383         0.524646         1.180411
 C         3.120460         1.867578         1.141744
 O         2.842932         2.606278        -0.013778
 C         2.921719         1.813264        -1.324694
 C         2.503258         0.409388        -1.067011
 H        -0.451753        -0.230442         0.761458
 H        -0.129281         1.426916         0.155935
 H        -0.521177        -0.004497        -0.976753
 H         4.118700        -0.834326         0.303344
 H         2.001050        -0.086980         2.018317
 H         2.882688         2.467430         2.034112
 H         4.179017         1.540000         1.213996
 H         2.213582         2.253790        -2.177750
 H         3.959902         1.935071        -1.652433
 H         2.280597        -0.272279        -1.888110
