19
Iteration:   677
 C        -0.090229         0.444923        -0.048096
 C         1.382391         0.134741         0.012293
 O         1.901637        -1.257847         0.120568
 C         3.113113        -0.515558        -0.039759
 C         2.599393         0.468600         1.160521
 C         3.004871         1.883997         1.226053
 O         2.747741         2.599789        -0.109355
 C         3.018702         1.781959        -1.220511
 C         2.529266         0.390735        -1.069550
 H        -0.872559         0.001556         0.677215
 H        -0.252389         1.494507         0.066157
 H        -0.576756         0.200238        -1.093892
 H         4.012905        -1.039448        -0.063374
 H         2.475627        -0.124191         2.041616
 H         2.431391         2.598522         1.764508
 H         4.111661         1.926960         1.482186
 H         2.509123         2.334128        -2.080944
 H         4.107574         1.809440        -1.382637
 H         2.222934        -0.194839        -1.930752
