19
Iteration:  3093
 C        -0.130113         0.321975        -0.061120
 C         1.408029         0.136568         0.055717
 O         1.849902        -1.289231         0.234735
 C         3.114684        -0.535280         0.008570
 C         2.485255         0.515670         1.107705
 C         3.114820         1.956002         1.085202
 O         2.753321         2.704683        -0.135625
 C         3.053174         1.785275        -1.188807
 C         2.531083         0.337625        -1.102870
 H        -0.671526        -0.237493         0.673873
 H        -0.280915         1.400887         0.060387
 H        -0.495442         0.048088        -1.023701
 H         3.989146        -1.083094         0.078946
 H         2.506364        -0.037483         2.032130
 H         2.682567         2.610207         1.886146
 H         4.141979         2.060188         1.310784
 H         2.515357         2.228078        -2.096017
 H         4.122870         1.850427        -1.428722
 H         2.160287        -0.147060        -2.020111
