19
Iteration:   673
 C        -0.116076         0.437457        -0.074456
 C         1.368968         0.128758         0.020153
 O         1.915291        -1.265062         0.139364
 C         3.137376        -0.504453        -0.034663
 C         2.579368         0.458709         1.161390
 C         3.002466         1.894700         1.204819
 O         2.748744         2.620161        -0.089651
 C         3.059478         1.779059        -1.235301
 C         2.479053         0.391360        -1.053790
 H        -0.820026         0.000620         0.563101
 H        -0.166574         1.655581         0.062209
 H        -0.461566         0.273992        -1.017217
 H         4.121280        -1.130086        -0.176335
 H         2.564461        -0.294834         2.086056
 H         2.415169         2.613691         1.899736
 H         4.096881         1.883688         1.384928
 H         2.381247         2.355001        -2.027230
 H         4.112876         1.728024        -1.541090
 H         2.251661        -0.242298        -1.974392
