19
Iteration:  2750charge 0 multiplicity 1
 C        -0.058857         0.480662        -0.050295
 C         1.409656         0.139169         0.056901
 O         1.914650        -1.322037         0.141168
 C         3.166522        -0.458008         0.079185
 C         2.470522         0.487032         1.096269
 C         3.029074         1.908883         1.170992
 O         2.777000         2.524392        -0.097392
 C         2.926672         1.835311        -1.307999
 C         2.552641         0.373869        -1.064878
 H        -0.612367         0.231583         0.870424
 H        -0.179338         1.462189        -0.197850
 H        -0.352674        -0.092907        -0.913581
 H         4.026021        -1.066563         0.278810
 H         2.236373         0.094902         2.099337
 H         2.531085         2.563887         1.982039
 H         4.113622         1.845761         1.299549
 H         2.102032         2.162341        -2.081169
 H         3.856222         2.040655        -1.896797
 H         2.507722        -0.134645        -1.991693
