19
Iteration:  2277charge 0 multiplicity 1
 C        -0.022635         0.316471         0.063231
 C         1.420142         0.112560         0.004291
 O         1.804032        -1.289880         0.018343
 C         3.132841        -0.484649         0.053265
 C         2.480322         0.493690         1.073181
 C         2.965838         2.008540         1.155508
 O         2.833343         2.685021        -0.064971
 C         3.100652         1.769048        -1.194087
 C         2.462924         0.305906        -1.144945
 H        -0.540031         0.132171         0.942675
 H        -0.183938         1.457677        -0.105135
 H        -0.507818        -0.249183        -0.688064
 H         4.058204        -0.914953         0.261674
 H         2.229056         0.111271         2.048868
 H         2.311721         2.511682         1.963141
 H         3.948617         2.113412         1.701294
 H         2.837730         2.306556        -2.132615
 H         4.234666         1.714362        -1.329147
 H         2.179455        -0.212316        -2.139281
