19
Iteration:  2089charge 0 multiplicity 1
 C        -0.124971         0.359895         0.064097
 C         1.348422         0.166576        -0.093137
 O         1.880617        -1.301333         0.028792
 C         3.121278        -0.488040         0.090083
 C         2.453205         0.489466         1.121679
 C         2.964173         1.918834         1.141973
 O         2.815775         2.597046        -0.096698
 C         3.069437         1.812226        -1.239027
 C         2.615648         0.423701        -1.071216
 H        -0.424838        -0.045991         1.054870
 H        -0.383774         1.486142         0.225400
 H        -0.743768        -0.254315        -0.561959
 H         4.050244        -1.004292         0.235864
 H         2.166638         0.113154         2.116079
 H         2.688668         2.676166         1.928265
 H         3.991773         1.745991         1.475726
 H         2.766267         2.312136        -2.184027
 H         4.157757         1.773977        -1.406469
 H         2.468798        -0.173579        -2.070345
