19
Iteration:  2183charge 0 multiplicity 1
 C         0.075501         0.515320        -0.071717
 C         1.476264         0.135137         0.005751
 O         1.866936        -1.375191         0.079930
 C         3.096947        -0.546040         0.184837
 C         2.437628         0.454947         1.142498
 C         3.006174         1.824628         1.089287
 O         2.768073         2.607818        -0.075518
 C         2.873386         1.887414        -1.299434
 C         2.572636         0.419637        -1.031891
 H        -0.552839         0.184053         0.877448
 H         0.176123         1.625046         0.006341
 H        -0.444102         0.122368        -1.028726
 H         4.172338        -1.033980         0.080653
 H         2.103597         0.091572         2.147404
 H         2.447485         2.365859         1.891909
 H         4.008696         1.956785         1.382814
 H         2.270041         2.457267        -2.072658
 H         3.874610         1.936092        -1.785114
 H         2.567712        -0.174222        -1.892767
