19
Iteration:  1788
 C        -0.057635         0.411910         0.108496
 C         1.397414         0.133001        -0.064450
 O         1.860132        -1.290790         0.047767
 C         3.114529        -0.550586         0.016958
 C         2.433206         0.518676         1.095921
 C         2.963110         1.934748         1.180357
 O         2.763966         2.640094        -0.088036
 C         3.095644         1.770415        -1.223782
 C         2.588911         0.372774        -1.094359
 H        -0.315255         0.329900         1.153503
 H        -0.335957         1.391477        -0.105006
 H        -0.480991        -0.389670        -0.538967
 H         3.982615        -1.095854         0.051650
 H         2.113481         0.065976         2.078080
 H         2.388787         2.643753         1.916318
 H         4.085683         1.892177         1.441881
 H         2.762314         2.203197        -2.206799
 H         4.142453         1.826366        -1.370643
 H         2.493711         0.004327        -2.101176
