19
Iteration:    83charge 0 multiplicity 1
 C        -0.059880         0.444682         0.053113
 C         1.422733         0.129822        -0.049760
 O         1.898616        -1.280824         0.029372
 C         3.064524        -0.498275         0.123336
 C         2.406680         0.461987         1.116859
 C         3.112875         1.904401         1.148114
 O         2.769494         2.515699        -0.103654
 C         2.969647         1.858020        -1.246831
 C         2.565215         0.433486        -1.083884
 H        -0.427287         0.113616         1.080116
 H        -0.036168         1.616488         0.147483
 H        -0.682515         0.021857        -0.804160
 H         4.013604        -0.998600         0.326115
 H         2.077988         0.000946         2.133872
 H         2.650098         2.511405         1.924123
 H         4.213002         1.719366         1.318682
 H         2.407922         2.285252        -2.072111
 H         4.048196         1.808392        -1.619566
 H         2.509535        -0.096912        -2.074000
