19
Iteration:   284charge 0 multiplicity 1
 C        -0.043844         0.411901         0.048169
 C         1.390996         0.158510        -0.024868
 O         1.763827        -1.284457         0.044091
 C         3.145043        -0.635915         0.116897
 C         2.444905         0.496877         1.112045
 C         3.062157         1.884516         1.060471
 O         2.800157         2.649263        -0.070104
 C         2.981469         1.869746        -1.212280
 C         2.697234         0.394238        -1.060228
 H        -0.570476        -0.218672         0.755344
 H        -0.517754         1.437881         0.205686
 H        -0.633113         0.055216        -0.955249
 H         4.098363        -1.216974         0.119481
 H         2.241979         0.137992         2.144975
 H         2.775433         2.511303         1.972535
 H         4.180096         1.825143         1.128116
 H         2.100469         2.199946        -1.756242
 H         3.923248         2.150045        -1.730857
 H         2.491409        -0.124456        -2.042255
