19
Iteration:  3003charge 0 multiplicity 1
 C         0.006304         0.505983         0.023094
 C         1.434716         0.092363         0.086864
 O         1.880806        -1.304378         0.132175
 C         3.151505        -0.544512        -0.044737
 C         2.541261         0.490694         1.084101
 C         2.963746         2.009395         1.118147
 O         2.703502         2.615236        -0.110392
 C         3.037201         1.797132        -1.219610
 C         2.494532         0.263939        -1.060319
 H        -0.651404         0.323483         0.864909
 H        -0.133104         1.587400        -0.349166
 H        -0.421620        -0.119008        -0.772990
 H         4.038509        -1.112884        -0.061499
 H         2.409251         0.117492         2.133541
 H         2.177538         2.589715         1.779592
 H         3.931423         2.102129         1.707104
 H         2.700386         2.304644        -2.129228
 H         4.091873         1.652002        -1.476507
 H         2.204464        -0.249720        -1.985323
