19
Iteration:   444charge 0 multiplicity 1
 C        -0.090266         0.359761        -0.103672
 C         1.415162         0.221250         0.038384
 O         1.800986        -1.241081         0.181136
 C         3.084453        -0.595944        -0.011380
 C         2.655677         0.444156         1.059087
 C         3.069051         1.931482         1.124418
 O         2.759867         2.566833        -0.029107
 C         3.014196         1.860673        -1.208471
 C         2.522774         0.436079        -1.044515
 H        -0.602282        -0.210130         0.674933
 H        -0.339959         1.546678        -0.034923
 H        -0.221612        -0.078771        -1.019870
 H         3.843191        -1.368937        -0.149300
 H         2.411319         0.033603         2.094684
 H         2.417105         2.276345         1.929921
 H         4.179532         2.080659         1.277993
 H         2.312414         2.297654        -1.987348
 H         4.057399         1.911360        -1.561038
 H         2.164642        -0.035604        -1.989026
