19
Iteration:  2134
 C        -0.013350         0.438980        -0.066333
 C         1.394150         0.147039         0.014345
 O         1.866888        -1.287073         0.184134
 C         3.109713        -0.513860         0.000989
 C         2.546216         0.430723         1.097118
 C         2.950711         1.886606         1.104859
 O         2.691836         2.587384        -0.096889
 C         3.141500         1.819668        -1.185353
 C         2.457973         0.448227        -1.059827
 H        -0.416424         0.036301         0.830369
 H        -0.151370         1.594034        -0.266369
 H        -0.476301        -0.187423        -0.819601
 H         4.029406        -1.088980         0.087430
 H         2.500864        -0.161467         2.020190
 H         2.555601         2.461981         1.927257
 H         4.003887         2.053316         1.421309
 H         2.796878         2.308741        -2.076711
 H         4.235982         1.761903        -1.350364
 H         2.179566         0.079165        -2.128151
