19
Iteration:  1787charge 0 multiplicity 1
 C        -0.055962         0.408239         0.109883
 C         1.405767         0.132402        -0.054485
 O         1.858201        -1.289624         0.051150
 C         3.110888        -0.554322         0.009010
 C         2.424897         0.518965         1.089703
 C         2.952671         1.928069         1.179606
 O         2.764415         2.640622        -0.089164
 C         3.103962         1.771908        -1.227597
 C         2.591745         0.375306        -1.093055
 H        -0.286018         0.333067         1.134218
 H        -0.333816         1.468403        -0.098850
 H        -0.463593        -0.393874        -0.503624
 H         4.008914        -1.083194         0.087880
 H         2.113254         0.047199         2.053676
 H         2.412238         2.641855         1.914857
 H         4.059256         1.892559         1.434266
 H         2.733708         2.193883        -2.197049
 H         4.142293         1.860861        -1.373449
 H         2.488577         0.007569        -2.096491
