19
Iteration:  3392
 C        -0.023731         0.414104        -0.006087
 C         1.435968         0.127116         0.022736
 O         1.807498        -1.335963         0.176448
 C         3.112781        -0.575084         0.082510
 C         2.508004         0.546232         1.118441
 C         3.059710         1.980976         1.087725
 O         2.729958         2.639068        -0.113220
 C         3.035447         1.858518        -1.254272
 C         2.517195         0.288430        -1.084941
 H        -0.460032        -0.020345         0.940436
 H        -0.276313         1.414818        -0.187332
 H        -0.481129        -0.112185        -0.907585
 H         4.009947        -1.045538         0.020596
 H         2.360094         0.075447         2.102208
 H         2.512354         2.667741         1.812038
 H         4.263856         2.129564         1.183937
 H         2.525856         2.278025        -2.168070
 H         4.126425         1.881998        -1.420963
 H         2.318007        -0.252661        -2.067399
