19
Iteration:  4422
 C         0.030470         0.463993         0.027029
 C         1.473153         0.124121         0.045895
 O         1.884529        -1.269331         0.131703
 C         3.043828        -0.504301         0.092981
 C         2.430790         0.518619         1.123427
 C         3.021241         1.951906         1.104071
 O         2.723784         2.585958        -0.137516
 C         2.989603         1.722517        -1.280858
 C         2.587333         0.330456        -1.088356
 H        -0.565181         0.100075         0.907848
 H         0.041430         1.626507         0.099873
 H        -0.463332        -0.088344        -0.835865
 H         4.022971        -1.112848         0.022850
 H         2.177152         0.261834         2.145648
 H         2.443040         2.616715         1.877601
 H         4.041748         1.923288         1.304856
 H         2.557532         2.298546        -2.187216
 H         4.012000         1.726462        -1.583989
 H         2.328655        -0.157007        -2.039872
