19
Iteration:  2472
 C        -0.057233         0.353960         0.048908
 C         1.412123         0.090386         0.091253
 O         1.893358        -1.297870         0.121406
 C         3.060353        -0.443697        -0.003518
 C         2.534490         0.435030         1.101371
 C         2.856237         1.928809         1.157997
 O         2.880977         2.598584        -0.091734
 C         3.122258         1.820140        -1.288226
 C         2.470200         0.445957        -1.144212
 H        -0.711504         0.171843         0.852332
 H        -0.127611         1.477931         0.028946
 H        -0.374843        -0.014328        -0.911536
 H         3.951999        -0.893258         0.131756
 H         2.437568        -0.057502         2.047595
 H         1.994583         2.339979         1.688705
 H         3.852799         2.053026         1.694125
 H         2.548488         2.400167        -2.093351
 H         4.276123         1.825283        -1.475021
 H         2.234040        -0.132644        -2.092765
