19
Iteration:  2528charge 0 multiplicity 1
 C        -0.090976         0.367736         0.044415
 C         1.433971         0.120700        -0.061637
 O         1.841723        -1.238439         0.121949
 C         3.168134        -0.444016         0.097576
 C         2.433903         0.457710         1.146993
 C         3.040069         1.878252         1.110934
 O         2.718757         2.564493        -0.070800
 C         3.098998         1.871640        -1.319077
 C         2.562015         0.408263        -1.068429
 H        -0.513606        -0.210847         0.790340
 H        -0.434849         1.402800        -0.085017
 H        -0.632306        -0.005649        -0.808467
 H         3.982834        -1.024837         0.074382
 H         2.055212        -0.026146         2.035426
 H         2.825796         2.512483         2.000686
 H         4.111494         1.594686         1.303318
 H         2.476024         2.453487        -2.095464
 H         4.243804         1.922746        -1.512023
 H         2.410351        -0.204372        -2.020799
