19
Iteration:  2250
 C        -0.131770         0.304032        -0.080649
 C         1.362194         0.189449         0.061754
 O         1.897907        -1.273566         0.172613
 C         3.068610        -0.515132        -0.034307
 C         2.531259         0.421463         1.127837
 C         3.052666         1.915094         1.105831
 O         2.771324         2.622207        -0.096727
 C         3.165660         1.826610        -1.224076
 C         2.470800         0.450246        -1.025990
 H        -0.789333        -0.104790         0.845357
 H        -0.222513         1.367304        -0.191733
 H        -0.720467        -0.075975        -1.009258
 H         4.146910        -0.981333        -0.156945
 H         2.276838         0.050352         2.166522
 H         2.410654         2.414209         1.896328
 H         3.993924         2.060382         1.544017
 H         2.789274         2.295328        -2.219190
 H         4.236946         1.780786        -1.347839
 H         2.186011         0.066088        -1.994752
