19
Iteration:  3369charge 0 multiplicity 1
 C        -0.182058         0.440706         0.077210
 C         1.332286         0.136724         0.007859
 O         1.925133        -1.273802         0.107063
 C         3.169592        -0.494385         0.136941
 C         2.496690         0.511670         1.093691
 C         2.960493         1.870346         1.084096
 O         2.781537         2.607759        -0.154071
 C         3.067221         1.789760        -1.270358
 C         2.565249         0.365503        -1.063779
 H        -0.489242         0.324462         1.153012
 H        -0.341221         1.359029        -0.377011
 H        -0.739533        -0.303180        -0.598802
 H         4.070845        -0.907781         0.315316
 H         2.319950         0.133860         2.102562
 H         2.630273         2.523174         1.952048
 H         4.225018         1.814625         1.093045
 H         2.530486         2.195613        -2.186476
 H         4.156619         1.765297        -1.489639
 H         2.660887        -0.140023        -2.092564
