19
Iteration:   895charge 0 multiplicity 1
 C        -0.091884         0.494557         0.070958
 C         1.366030         0.168663         0.043752
 O         1.905408        -1.335206         0.093136
 C         3.146959        -0.480949        -0.035325
 C         2.587634         0.454410         1.047039
 C         2.910950         1.936492         1.192704
 O         2.703301         2.587323        -0.110931
 C         3.201850         1.746941        -1.187543
 C         2.446103         0.403520        -1.126671
 H        -0.614098         0.243682         1.056538
 H        -0.209118         1.460109        -0.121910
 H        -0.618224        -0.043020        -0.754945
 H         4.022947        -0.960880        -0.189516
 H         2.443563        -0.063162         1.973166
 H         2.325781         2.435823         1.952177
 H         3.953309         1.951746         1.600428
 H         2.789968         2.368703        -2.062155
 H         4.291140         1.666324        -1.305339
 H         2.309025        -0.226226        -2.016821
