19
Iteration:  4882
 C        -0.015374         0.528804        -0.013682
 C         1.481741         0.225265         0.083321
 O         1.876486        -1.348518         0.222411
 C         3.121702        -0.554724         0.079439
 C         2.553430         0.460888         1.076519
 C         2.957206         1.977572         1.123162
 O         2.656437         2.565915        -0.157416
 C         3.044735         1.770173        -1.282038
 C         2.507217         0.381253        -1.116511
 H        -0.484901         0.460043         0.989176
 H        -0.373299         1.379662        -0.551247
 H        -0.451309        -0.228826        -0.695636
 H         3.970125        -1.231893         0.284792
 H         2.459087        -0.031948         2.082285
 H         2.298610         2.535441         1.692827
 H         4.137181         1.868502         1.416065
 H         2.813695         2.310205        -2.234347
 H         4.232553         1.730586        -1.474379
 H         2.306344        -0.189176        -2.040190
