19
Iteration:  3454charge 0 multiplicity 1
 C        -0.032035         0.522094         0.026480
 C         1.387836         0.094464        -0.030314
 O         1.917856        -1.285882         0.167350
 C         3.129645        -0.505657         0.126730
 C         2.429334         0.480925         1.064350
 C         3.044117         1.927716         1.077515
 O         2.715445         2.643544        -0.162289
 C         2.983840         1.742596        -1.255977
 C         2.577329         0.286307        -1.032420
 H        -0.597312        -0.057110         0.801927
 H        -0.013143         1.543278         0.326847
 H        -0.538161         0.408682        -0.990953
 H         4.209579        -0.912286         0.275220
 H         2.212662         0.138011         2.064338
 H         2.508331         2.434582         1.910982
 H         4.202538         1.887790         1.355892
 H         2.396079         2.184342        -2.094341
 H         4.039649         1.888381        -1.523827
 H         2.450618        -0.270335        -2.017078
