19
Iteration:   972charge 0 multiplicity 1
 C        -0.114225         0.465053        -0.164655
 C         1.394201         0.149275         0.053136
 O         1.875254        -1.308739         0.180763
 C         3.099306        -0.477382         0.005471
 C         2.575301         0.486282         1.085559
 C         3.142276         1.863326         1.156887
 O         2.726922         2.606600        -0.037318
 C         2.941426         1.774939        -1.211927
 C         2.545174         0.369581        -1.070158
 H        -0.775081         0.048665         0.645905
 H        -0.240219         1.495346        -0.120420
 H        -0.428704         0.178312        -1.220967
 H         4.077550        -0.849113        -0.041813
 H         2.415886         0.024836         2.065981
 H         2.607652         2.414623         1.963363
 H         4.237138         1.945175         1.358200
 H         2.421547         2.432852        -1.958593
 H         4.060478         1.691353        -1.312918
 H         2.233274        -0.172107        -2.011982
