19
Iteration:  2273
 C        -0.038603         0.353769         0.050205
 C         1.398877         0.116793         0.035424
 O         1.804808        -1.307299         0.027488
 C         3.134446        -0.465346         0.045008
 C         2.520149         0.501864         1.063205
 C         2.947215         1.993794         1.152978
 O         2.836874         2.688594        -0.081107
 C         3.117794         1.780130        -1.165303
 C         2.460439         0.289915        -1.143549
 H        -0.601220        -0.081296         0.999452
 H        -0.313568         1.356528        -0.258765
 H        -0.491686        -0.270619        -0.792338
 H         4.083497        -1.009200         0.285009
 H         2.349360         0.083000         2.087566
 H         2.339174         2.521614         1.994358
 H         3.933588         2.056179         1.547143
 H         2.804526         2.419948        -2.106370
 H         4.178103         1.632890        -1.310003
 H         2.214727        -0.106661        -2.139654
