19
Iteration:  4238charge 0 multiplicity 1
 C         0.023732         0.501615        -0.033222
 C         1.421710         0.158281         0.047221
 O         1.824043        -1.365001         0.161157
 C         3.086033        -0.513495         0.040995
 C         2.635079         0.467030         1.093139
 C         2.982068         2.045887         1.142377
 O         2.657451         2.621295        -0.128959
 C         3.073955         1.691839        -1.236280
 C         2.506910         0.354289        -1.056938
 H        -0.549194         0.065418         0.782034
 H         0.001878         1.544227        -0.066175
 H        -0.534840         0.082984        -0.909850
 H         3.982835        -1.066421         0.116712
 H         2.422773         0.091887         2.088300
 H         2.247727         2.486776         1.771351
 H         4.130439         2.108639         1.293418
 H         2.636274         2.133689        -2.117672
 H         4.143071         1.766934        -1.553693
 H         2.304105        -0.230599        -1.975533
