19
Iteration:  1371
 C         0.014445         0.419908         0.022688
 C         1.447307         0.163649        -0.057675
 O         1.820748        -1.336047        -0.001299
 C         3.041840        -0.544911         0.140351
 C         2.495488         0.476759         1.096543
 C         3.062018         1.938675         1.140720
 O         2.743260         2.666792        -0.044636
 C         2.993144         1.783349        -1.192505
 C         2.554325         0.361872        -1.089939
 H        -0.385488         0.056481         0.926052
 H        -0.294591         1.495408        -0.125209
 H        -0.457802        -0.054307        -0.788405
 H         3.971278        -0.950797         0.257347
 H         2.305743         0.151534         2.130817
 H         2.614100         2.526734         1.904781
 H         4.121825         1.867453         1.278524
 H         2.423633         2.245113        -1.999035
 H         4.002065         1.951937        -1.669338
 H         2.615437        -0.222990        -1.995829
