19
Iteration:  1823
 C        -0.084797         0.352540        -0.073695
 C         1.380093         0.138611         0.130693
 O         1.861587        -1.288355         0.145544
 C         3.114618        -0.456749        -0.012771
 C         2.468644         0.467656         1.115353
 C         3.060343         1.892941         1.126352
 O         2.768172         2.627568        -0.096836
 C         3.096631         1.816485        -1.232693
 C         2.503128         0.447559        -1.054221
 H        -0.845199        -0.090493         0.633885
 H        -0.299053         1.267449        -0.338292
 H        -0.354994        -0.192460        -1.015118
 H         3.981123        -1.044557        -0.184197
 H         2.456262         0.049844         2.148669
 H         2.694024         2.510642         2.005968
 H         4.183725         1.707622         1.332376
 H         2.595289         2.332875        -2.075936
 H         4.131690         1.663446        -1.339978
 H         2.162641         0.015927        -2.021124
