19
Iteration:  1436charge 0 multiplicity 1
 C         0.043872         0.378692         0.088736
 C         1.445791         0.099229        -0.028916
 O         1.847388        -1.261009         0.034422
 C         3.077097        -0.533999         0.031365
 C         2.478085         0.473389         1.066444
 C         2.901362         1.963566         1.167240
 O         2.817585         2.654715        -0.084631
 C         3.067564         1.734850        -1.146662
 C         2.438797         0.405979        -1.104941
 H        -0.340974         0.150157         1.002595
 H        -0.063019         1.471497        -0.194992
 H        -0.373261        -0.159924        -0.688771
 H         3.967119        -1.073382        -0.042021
 H         2.314166        -0.029685         2.021382
 H         2.283793         2.531151         1.980033
 H         4.021554         2.103519         1.422459
 H         2.850624         2.256274        -2.120109
 H         4.153343         1.708513        -1.418139
 H         2.359115         0.033691        -2.130790
