19
Iteration:    35charge 0 multiplicity 1
 C        -0.064987         0.375017        -0.014277
 C         1.427719         0.143371        -0.003478
 O         1.851020        -1.214141         0.122188
 C         3.068416        -0.538091        -0.043918
 C         2.592134         0.465395         1.150035
 C         2.975465         1.920177         1.194060
 O         2.789019         2.565462        -0.073695
 C         3.109370         1.812104        -1.251698
 C         2.438384         0.445741        -1.071447
 H        -0.393801         0.260991         1.007687
 H        -0.187077         1.377717        -0.224246
 H        -0.619676        -0.324726        -0.723014
 H         3.950771        -1.241341        -0.294121
 H         2.371578        -0.144530         2.089411
 H         2.295433         2.443678         1.906349
 H         4.021603         2.052873         1.512880
 H         2.718850         2.399317        -2.140514
 H         4.165750         1.637201        -1.421455
 H         2.125455        -0.012141        -2.089764
