19
Iteration:   940
 C         0.094470         0.489614         0.060721
 C         1.499426         0.152848        -0.000269
 O         1.800890        -1.322966         0.001925
 C         3.055465        -0.524994         0.093435
 C         2.414913         0.432639         1.171538
 C         2.986629         1.891512         1.143017
 O         2.733112         2.634912        -0.102097
 C         2.956098         1.848449        -1.281137
 C         2.668297         0.362311        -1.074082
 H        -0.276931         0.182616         1.053480
 H        -0.045750         1.500986        -0.061932
 H        -0.534971        -0.100943        -0.674359
 H         4.027524        -0.955887         0.164799
 H         2.091448        -0.004943         2.139063
 H         2.433368         2.399245         1.956054
 H         4.065229         1.920603         1.454411
 H         2.483069         2.258370        -2.270262
 H         3.969322         1.754771        -1.584428
 H         2.385013        -0.222335        -2.028223
