19
Iteration:   726charge 0 multiplicity 1
 C        -0.110069         0.460496         0.147182
 C         1.336806         0.116374         0.019753
 O         1.887979        -1.365222        -0.019685
 C         3.122538        -0.516473         0.095976
 C         2.441509         0.477820         1.062788
 C         3.023812         1.901084         1.049613
 O         2.685008         2.605872        -0.070296
 C         3.149034         1.820772        -1.211828
 C         2.621746         0.441611        -1.108498
 H        -0.482528         0.330166         1.134004
 H        -0.358721         1.615622        -0.039522
 H        -0.768367        -0.099053        -0.463292
 H         4.120521        -1.150805         0.219669
 H         2.282717        -0.008923         2.090785
 H         2.363310         2.436893         1.811140
 H         4.070792         2.016210         1.291544
 H         2.767863         2.490274        -1.934115
 H         4.286682         1.800214        -1.378461
 H         2.767728        -0.153924        -2.050965
