19
Iteration:  3034charge 0 multiplicity 1
 C        -0.003049         0.541537         0.066789
 C         1.438818         0.096918        -0.018765
 O         1.905346        -1.357630         0.142049
 C         3.165644        -0.492829         0.125745
 C         2.455221         0.471743         1.046092
 C         2.984436         1.918976         1.085148
 O         2.712556         2.586790        -0.121696
 C         3.005506         1.846445        -1.273623
 C         2.537055         0.318679        -1.073989
 H        -0.531690         0.139257         1.002711
 H        -0.130960         1.683045         0.199364
 H        -0.613974         0.239092        -0.869891
 H         4.173934        -1.023276         0.263804
 H         2.272660         0.110726         2.096306
 H         2.163023         2.470821         1.554815
 H         4.031378         2.033796         1.381057
 H         2.440641         2.320836        -2.036288
 H         4.116388         1.767928        -1.504680
 H         2.436447        -0.280604        -1.994908
