19
Iteration:  3514charge 0 multiplicity 1
 C        -0.084333         0.410193         0.025575
 C         1.378484         0.112687         0.025706
 O         1.872285        -1.320069         0.214378
 C         3.145750        -0.457151         0.005853
 C         2.522489         0.505331         1.026109
 C         2.996698         1.968448         1.123331
 O         2.775373         2.615317        -0.157940
 C         3.113214         1.754537        -1.193304
 C         2.429433         0.361861        -1.115457
 H        -0.490655         0.258781         1.031484
 H        -0.457085         1.473854        -0.391992
 H        -0.582253        -0.377298        -0.547477
 H         4.099841        -0.819568         0.181646
 H         2.567405         0.124639         2.098654
 H         2.430344         2.687722         1.799529
 H         4.072555         2.041980         1.485183
 H         2.879599         2.293428        -2.135969
 H         4.228476         1.423351        -1.241571
 H         2.113181        -0.151360        -2.049953
