19
Iteration:  4703
 C        -0.000399         0.450462         0.043494
 C         1.389872         0.035233         0.030001
 O         1.878920        -1.305379         0.144818
 C         3.149491        -0.474155         0.091893
 C         2.409122         0.515345         1.141929
 C         3.006779         1.951902         1.062978
 O         2.736285         2.589458        -0.158202
 C         3.101240         1.790990        -1.240591
 C         2.508826         0.342323        -1.109517
 H        -0.625857         0.567978         0.954371
 H         0.059889         1.597574        -0.077165
 H        -0.671839        -0.040255        -0.637231
 H         4.086757        -1.113154         0.108203
 H         2.175125         0.055706         2.081979
 H         2.411525         2.537926         1.795344
 H         3.973617         2.129037         1.262544
 H         2.705715         2.307153        -2.086592
 H         4.192909         1.889497        -1.511031
 H         2.315649        -0.276651        -2.010799
