19
Iteration:  1530
 C        -0.167108         0.483872        -0.096998
 C         1.400618         0.172599         0.081032
 O         1.864078        -1.316057         0.133697
 C         3.142278        -0.509281         0.044688
 C         2.601692         0.454660         1.073074
 C         3.051318         1.870077         1.092051
 O         2.677945         2.606876        -0.030218
 C         3.064292         1.842468        -1.210569
 C         2.569489         0.387281        -1.034117
 H        -0.746577        -0.127533         0.613574
 H        -0.464201         1.536217        -0.145526
 H        -0.341927         0.039926        -1.108402
 H         4.095567        -1.152607        -0.094531
 H         2.482474        -0.077158         2.013383
 H         2.622621         2.404763         1.906758
 H         4.166244         1.788950         1.271430
 H         2.472513         2.251749        -1.965243
 H         4.034131         2.026677        -1.708794
 H         2.300698        -0.210556        -1.911708
