19
Iteration:   173charge 0 multiplicity 1
 C        -0.093694         0.435451         0.058178
 C         1.437888         0.169918        -0.014399
 O         1.821830        -1.289996        -0.014379
 C         3.102907        -0.473701         0.129767
 C         2.453193         0.484985         1.113615
 C         3.071652         1.910562         1.151421
 O         2.746477         2.494216        -0.078840
 C         3.034558         1.871128        -1.301371
 C         2.603815         0.359089        -1.071849
 H        -0.294396        -0.015800         1.086798
 H        -0.192806         1.639728         0.040998
 H        -0.695881         0.026976        -0.730958
 H         3.984914        -0.962533         0.259677
 H         2.289251         0.073412         2.063251
 H         2.508564         2.449327         1.898937
 H         4.162051         1.918520         1.460345
 H         2.487117         2.360486        -2.035267
 H         4.114660         1.935664        -1.521205
 H         2.463616        -0.235130        -1.914026
