19
Iteration:  2278charge 0 multiplicity 1
 C        -0.020355         0.311874         0.064295
 C         1.426548         0.111029        -0.004336
 O         1.805850        -1.286453         0.018068
 C         3.125579        -0.488450         0.054053
 C         2.469491         0.493942         1.074030
 C         2.966822         2.011037         1.160524
 O         2.832252         2.682401        -0.062003
 C         3.096626         1.767566        -1.206216
 C         2.465396         0.315097        -1.143689
 H        -0.520547         0.185156         0.955137
 H        -0.148341         1.451927        -0.058775
 H        -0.520635        -0.250436        -0.679514
 H         4.103809        -0.925947         0.248606
 H         2.200041         0.108782         2.046819
 H         2.315180         2.493787         1.913111
 H         3.975790         2.123798         1.730666
 H         2.841580         2.261600        -2.109126
 H         4.239192         1.729707        -1.324407
 H         2.188915        -0.226785        -2.101456
