19
Iteration:  2775charge 0 multiplicity 1
 C        -0.048797         0.467317        -0.123251
 C         1.444650         0.107616         0.071666
 O         1.853148        -1.351753         0.147280
 C         3.201449        -0.483053         0.013896
 C         2.586368         0.449216         1.107784
 C         3.059967         1.971257         1.148179
 O         2.707264         2.629245        -0.101483
 C         2.964342         1.801412        -1.218972
 C         2.423437         0.350244        -1.021549
 H        -0.449215         0.323965         0.864133
 H        -0.276543         1.595774        -0.312059
 H        -0.460682        -0.149374        -0.900688
 H         4.071727        -1.049203         0.125518
 H         2.500693         0.122068         2.170495
 H         2.316579         2.418087         1.815589
 H         4.172034         2.117784         1.334501
 H         2.548038         2.223722        -2.228976
 H         4.094121         1.645501        -1.420238
 H         2.184236        -0.107501        -2.002415
