19
Iteration:  1721
 C         0.030201         0.529915        -0.082830
 C         1.446502         0.074791         0.075651
 O         1.895008        -1.355566         0.145604
 C         3.108601        -0.499128         0.029531
 C         2.535088         0.439587         1.079034
 C         3.012086         1.895292         1.162598
 O         2.714512         2.610147        -0.085973
 C         2.991077         1.831455        -1.225700
 C         2.440102         0.429404        -1.087324
 H        -0.597991         0.133903         0.663874
 H        -0.191665         1.582118         0.015509
 H        -0.364418         0.188271        -1.023504
 H         4.048924        -1.007600         0.080436
 H         2.338512         0.024309         2.085547
 H         2.270712         2.283011         1.943080
 H         4.126265         1.898749         1.404307
 H         2.689853         2.418212        -2.128561
 H         4.072855         1.649012        -1.468316
 H         2.335852        -0.110042        -2.026845
