19
Iteration:  3983
 C         0.012469         0.393997         0.059865
 C         1.433227         0.106452        -0.017694
 O         1.817533        -1.276936         0.109872
 C         3.105873        -0.466083         0.158932
 C         2.419470         0.514880         1.152889
 C         2.996252         1.974996         1.084584
 O         2.810845         2.595215        -0.158982
 C         3.005295         1.751095        -1.327375
 C         2.590696         0.337918        -1.029180
 H        -0.450996        -0.022538         0.954657
 H        -0.199351         1.582133        -0.078592
 H        -0.603360         0.006842        -0.742926
 H         4.090883        -0.998054         0.031111
 H         2.237032         0.053933         2.051985
 H         2.567392         2.667496         1.750232
 H         4.114258         1.960919         1.470467
 H         2.311496         2.178994        -2.082481
 H         4.010750         1.854785        -1.704303
 H         2.355922        -0.186335        -1.940279
