19
Iteration:  1175
 C        -0.037431         0.471594        -0.118205
 C         1.413078         0.127226         0.060891
 O         1.845610        -1.338845         0.122059
 C         3.099154        -0.484161         0.082593
 C         2.518591         0.428756         1.113999
 C         3.102419         1.854918         1.132193
 O         2.747186         2.600981        -0.042235
 C         2.976008         1.890901        -1.270967
 C         2.519977         0.394652        -1.037096
 H        -0.592211        -0.094267         0.564349
 H        -0.351092         1.475647        -0.089970
 H        -0.302436         0.084676        -1.059410
 H         4.112458        -0.968784        -0.042573
 H         2.174643        -0.059122         2.016226
 H         2.766733         2.518815         1.849713
 H         4.152780         1.766820         1.326778
 H         2.298364         2.401629        -1.950356
 H         4.116960         2.038148        -1.579128
 H         2.282868        -0.015850        -1.958980
