19
Iteration:   843
 C        -0.168545         0.376787        -0.035622
 C         1.345357         0.160740         0.009790
 O         1.873934        -1.304617         0.086508
 C         3.133516        -0.509614         0.078980
 C         2.484961         0.512658         1.088924
 C         3.123744         1.865146         1.082056
 O         2.804623         2.607760        -0.061772
 C         2.998278         1.858483        -1.194247
 C         2.586303         0.420956        -1.083647
 H        -0.620746        -0.166128         0.810211
 H        -0.341060         1.414956         0.159478
 H        -0.738463        -0.019613        -0.947968
 H         4.076455        -0.996969         0.399133
 H         2.349862         0.138935         2.129290
 H         2.561802         2.387251         1.871062
 H         4.159799         1.706377         1.381424
 H         2.292708         2.288042        -2.040194
 H         4.032749         1.915654        -1.601970
 H         2.575443        -0.186834        -2.004720
