19
Iteration:  2469charge 0 multiplicity 1
 C        -0.025132         0.365142         0.053331
 C         1.407780         0.108542         0.068387
 O         1.891734        -1.305419         0.134900
 C         3.054049        -0.419870        -0.002494
 C         2.523661         0.429811         1.075125
 C         2.843198         1.917902         1.149631
 O         2.884630         2.583278        -0.077182
 C         3.121024         1.815362        -1.280501
 C         2.450978         0.460672        -1.141877
 H        -0.732667         0.145423         0.887770
 H        -0.108421         1.435044         0.017533
 H        -0.241186        -0.094303        -0.921113
 H         4.089139        -0.983009         0.122912
 H         2.388301        -0.052755         2.055022
 H         2.051288         2.336690         1.713416
 H         3.842853         2.154961         1.630888
 H         2.634689         2.310009        -2.059769
 H         4.213245         1.862351        -1.531887
 H         2.184684        -0.140913        -1.989050
