19
Iteration:  3431charge 0 multiplicity 1
 C        -0.144436         0.553888        -0.081870
 C         1.393300         0.150255         0.072839
 O         1.911212        -1.396956         0.204871
 C         3.141209        -0.486832         0.089745
 C         2.609016         0.463342         1.181011
 C         3.019232         1.994813         1.090454
 O         2.703269         2.517481        -0.143912
 C         3.012799         1.815357        -1.311561
 C         2.514767         0.334031        -1.088846
 H        -0.786302        -0.029567         0.584818
 H        -0.349206         1.625622         0.164380
 H        -0.442233         0.332707        -1.134598
 H         4.244036        -1.010349        -0.003001
 H         2.440915         0.227093         2.220406
 H         2.551530         2.610597         1.869208
 H         4.197350         1.959364         1.330252
 H         2.475137         2.469429        -1.991884
 H         4.070782         1.910783        -1.601169
 H         2.459889        -0.379922        -1.923632
