19
Iteration:   337charge 0 multiplicity 1
 C        -0.065987         0.471605        -0.033699
 C         1.345977         0.147348         0.124199
 O         1.891638        -1.345227         0.128047
 C         3.080585        -0.495345        -0.032311
 C         2.599131         0.457512         1.046034
 C         3.045004         1.825824         1.168597
 O         2.746860         2.667648        -0.075385
 C         3.062105         1.773977        -1.201183
 C         2.450267         0.407424        -1.087066
 H        -0.694371         0.077912         0.762858
 H        -0.311033         1.635575        -0.135052
 H        -0.370668         0.119054        -1.096655
 H         4.090780        -0.900829        -0.021811
 H         2.553771         0.060490         2.099883
 H         2.314896         2.244129         1.913493
 H         4.103138         2.070227         1.319397
 H         2.706331         2.331541        -2.053434
 H         4.198258         1.833043        -1.491913
 H         2.232808        -0.141866        -2.041134
