19
Iteration:   312charge 0 multiplicity 1
 C        -0.057384         0.444936        -0.025157
 C         1.394586         0.100114        -0.064604
 O         1.891470        -1.274765         0.050564
 C         3.123015        -0.471709         0.114952
 C         2.457177         0.504961         1.207487
 C         3.134719         1.854077         1.166030
 O         2.734140         2.578767        -0.060794
 C         3.012881         1.789355        -1.255877
 C         2.454436         0.402281        -1.125430
 H        -0.557020        -0.124191         0.780821
 H        -0.189919         1.516417         0.191098
 H        -0.555982         0.305657        -0.854195
 H         4.077572        -0.945981         0.045680
 H         2.207011         0.130746         2.199889
 H         2.933172         2.503801         1.956044
 H         4.226764         1.771276         1.064941
 H         2.496167         2.407551        -2.009303
 H         4.082051         1.828874        -1.537922
 H         2.280703        -0.197570        -1.974310
