19
Iteration:  1528charge 0 multiplicity 1
 C        -0.155988         0.496989        -0.118543
 C         1.377386         0.164823         0.092708
 O         1.867765        -1.307335         0.132258
 C         3.148091        -0.533712         0.040312
 C         2.601764         0.465625         1.077330
 C         3.049993         1.876870         1.079334
 O         2.675589         2.614423        -0.026704
 C         3.061462         1.852351        -1.208973
 C         2.568822         0.372688        -1.021332
 H        -0.761819        -0.153336         0.613120
 H        -0.460316         1.435923        -0.081041
 H        -0.341800         0.014689        -1.132740
 H         4.061536        -1.127929        -0.161522
 H         2.552906        -0.069802         2.068417
 H         2.666831         2.347487         1.913570
 H         4.208228         1.783156         1.335886
 H         2.432873         2.275155        -1.966556
 H         4.090945         1.993045        -1.741169
 H         2.282690        -0.204226        -1.910746
