19
Iteration:   781charge 0 multiplicity 1
 C        -0.105027         0.420074        -0.127715
 C         1.438600         0.133608         0.108862
 O         1.827307        -1.315012         0.139577
 C         3.147510        -0.537590        -0.025377
 C         2.595897         0.411339         1.098711
 C         3.013846         1.901241         1.207854
 O         2.807017         2.694924        -0.069585
 C         2.980872         1.817122        -1.263074
 C         2.513065         0.364679        -1.074698
 H        -0.562022         0.145264         0.793049
 H        -0.345262         1.645371        -0.157712
 H        -0.652589         0.037372        -0.989468
 H         4.118702        -1.254162        -0.018296
 H         2.618899        -0.052203         2.162342
 H         2.309707         2.412996         1.942180
 H         3.966362         2.245711         1.694164
 H         2.387569         2.357100        -1.945060
 H         4.022615         1.884547        -1.698630
 H         2.219709        -0.077383        -2.086960
