19
Iteration:  2591
 C        -0.035584         0.560351        -0.091498
 C         1.403930         0.103758         0.045934
 O         1.907996        -1.324812         0.156699
 C         3.154064        -0.509725         0.103336
 C         2.559394         0.479363         1.063593
 C         2.970286         1.863322         1.125250
 O         2.709213         2.589236        -0.021128
 C         2.954839         1.847714        -1.283042
 C         2.537878         0.343494        -1.090119
 H        -0.532807         0.290243         0.844677
 H        -0.099851         1.698195        -0.300531
 H        -0.379210        -0.080128        -0.905773
 H         4.201514        -1.182093        -0.023863
 H         2.480452         0.066599         2.049554
 H         2.428352         2.435382         1.812058
 H         4.051018         1.887281         1.323988
 H         2.243448         2.279881        -1.937683
 H         4.028646         1.888077        -1.560640
 H         2.409908        -0.224348        -2.038114
