19
Iteration:  1958
 C        -0.004049         0.352998         0.011060
 C         1.431337         0.118147         0.036303
 O         1.821788        -1.236495         0.085257
 C         3.072909        -0.516953        -0.007783
 C         2.463115         0.442023         1.106449
 C         2.977734         1.901806         1.190134
 O         2.678180         2.657579        -0.144328
 C         3.156174         1.774174        -1.220900
 C         2.517495         0.449722        -1.028395
 H        -0.160061         0.198399         1.114323
 H         0.007608         1.461403        -0.384739
 H        -0.506480        -0.224872        -0.778717
 H         4.187883        -1.122176         0.071701
 H         2.311698        -0.022271         2.089639
 H         2.580737         2.592979         1.853639
 H         4.121553         1.752717         1.162476
 H         2.810585         2.282783        -2.133589
 H         4.276463         1.730518        -1.168962
 H         2.229458        -0.094749        -2.015551
