19
Iteration:  1735
 C         0.005168         0.516475        -0.007381
 C         1.420426         0.211729         0.030052
 O         1.924813        -1.383695         0.040428
 C         3.119774        -0.521325         0.002281
 C         2.532241         0.491440         1.092142
 C         2.900912         1.956670         1.132556
 O         2.756545         2.601559        -0.040741
 C         3.030932         1.751349        -1.184781
 C         2.450098         0.294578        -1.071613
 H        -0.645595         0.271444         0.951603
 H         0.140953         1.516691        -0.044785
 H        -0.320885         0.060006        -1.015926
 H         4.055211        -0.970029        -0.115938
 H         2.508120         0.048659         2.133760
 H         2.410309         2.645157         1.874015
 H         3.929614         2.076730         1.522016
 H         2.479336         2.293972        -2.021148
 H         4.207897         1.864149        -1.306653
 H         2.064178        -0.159253        -1.983921
