19
Iteration:  3546charge 0 multiplicity 1
 C        -0.100216         0.403867        -0.009976
 C         1.415335         0.120890         0.061632
 O         1.863223        -1.303435         0.140060
 C         3.146832        -0.535820         0.047779
 C         2.470558         0.516682         1.121754
 C         2.994573         1.957282         1.087754
 O         2.823818         2.638697        -0.164606
 C         3.030553         1.793635        -1.256129
 C         2.514511         0.366117        -1.022234
 H        -0.495864         0.351257         1.008314
 H        -0.371531         1.427657        -0.466620
 H        -0.517927        -0.471054        -0.516492
 H         4.068691        -1.002677         0.149600
 H         2.403177         0.043670         2.159194
 H         2.531482         2.692409         1.879006
 H         4.125480         1.988198         1.423635
 H         2.482413         2.183489        -2.148085
 H         4.096018         1.691875        -1.579423
 H         2.266881        -0.188193        -1.976200
