19
Iteration:  4208
 C        -0.018038         0.428533         0.131787
 C         1.424350         0.196437         0.047772
 O         1.847580        -1.295334         0.108444
 C         3.109875        -0.447785         0.053493
 C         2.441404         0.475397         1.067795
 C         2.947397         1.953737         1.078280
 O         2.708112         2.596986        -0.153826
 C         3.135176         1.696026        -1.265122
 C         2.608702         0.328688        -1.079122
 H        -0.574200         0.192150         1.129667
 H        -0.192381         1.512120         0.163017
 H        -0.530532        -0.034854        -0.834628
 H         4.010992        -0.960527         0.194932
 H         2.005715         0.044412         2.037377
 H         2.445570         2.667720         1.734239
 H         3.992204         1.920354         1.254960
 H         2.648498         2.282797        -2.033599
 H         4.293771         1.798557        -1.426794
 H         2.468334        -0.272474        -2.006743
