19
Iteration:  3726
 C        -0.111668         0.414601        -0.050686
 C         1.376818         0.125031         0.095515
 O         1.864313        -1.246640         0.187047
 C         3.136783        -0.520031         0.069287
 C         2.593701         0.486040         1.063695
 C         2.923511         1.983445         1.145538
 O         2.856786         2.607642        -0.144643
 C         3.002290         1.780488        -1.240539
 C         2.518699         0.302021        -1.119710
 H        -0.725241         0.121418         0.862450
 H        -0.130959         1.379551        -0.439123
 H        -0.562578        -0.384409        -0.788434
 H         4.167808        -0.904851         0.132581
 H         2.476106         0.230012         2.166480
 H         2.659515         2.595406         1.977597
 H         4.073967         2.006507         1.533745
 H         2.385925         2.234829        -2.010133
 H         3.948507         1.834541        -1.709407
 H         2.136627        -0.196568        -2.051441
