19
Iteration:   653
 C         0.011614         0.475205        -0.117425
 C         1.398279         0.075384         0.095515
 O         1.894244        -1.399085         0.130096
 C         3.099756        -0.451598         0.030725
 C         2.529976         0.508640         1.065010
 C         3.066364         1.869798         1.133465
 O         2.812226         2.629307        -0.056029
 C         2.915023         1.816437        -1.213935
 C         2.445615         0.400341        -1.065100
 H        -0.724690        -0.060675         0.475380
 H        -0.271846         1.589174         0.096999
 H        -0.293378         0.265588        -1.108046
 H         4.141227        -0.806356         0.175680
 H         2.271095         0.131437         2.121474
 H         2.467112         2.499224         1.835512
 H         4.165947         1.836081         1.424543
 H         2.515864         2.448343        -2.136163
 H         3.978449         1.770772        -1.326636
 H         2.096430        -0.142264        -1.971807
