19
Iteration:  3938charge 0 multiplicity 1
 C        -0.018897         0.311372        -0.140077
 C         1.361771         0.087452         0.131824
 O         1.853967        -1.262264         0.231036
 C         3.065874        -0.411062         0.023907
 C         2.512468         0.544630         1.148861
 C         3.086130         1.925932         1.125078
 O         2.802571         2.614824        -0.153359
 C         3.023389         1.761997        -1.269096
 C         2.427220         0.359143        -1.059746
 H        -0.578098         0.015086         0.754169
 H        -0.095915         1.526808        -0.286940
 H        -0.521037        -0.130695        -0.987008
 H         4.071039        -0.968856         0.027455
 H         2.337809         0.246056         2.132724
 H         2.880479         2.608909         1.897156
 H         4.161484         1.779640         1.270944
 H         2.502509         2.378149        -2.053424
 H         4.097348         1.679490        -1.623063
 H         2.386514        -0.177926        -1.989570
