19
Iteration:  1736
 C         0.000021         0.508887        -0.005481
 C         1.416792         0.214803         0.028220
 O         1.927789        -1.379042         0.032819
 C         3.119515        -0.518186        -0.004243
 C         2.529462         0.482681         1.091619
 C         2.898126         1.972667         1.147074
 O         2.756215         2.604048        -0.046680
 C         3.033787         1.744372        -1.180295
 C         2.459723         0.286174        -1.064803
 H        -0.643019         0.317688         0.989594
 H         0.125452         1.586218        -0.011027
 H        -0.337786         0.044423        -1.008732
 H         4.090366        -1.014766        -0.119109
 H         2.502587         0.040448         2.120821
 H         2.402931         2.631591         1.856797
 H         3.916515         2.062378         1.504953
 H         2.498159         2.277979        -2.010216
 H         4.212347         1.857383        -1.354260
 H         2.044887        -0.155789        -1.985174
