19
Iteration:  1767
 C        -0.002410         0.446606         0.127113
 C         1.397594         0.125135        -0.047059
 O         1.820342        -1.317238         0.069927
 C         3.127549        -0.460233         0.108554
 C         2.511663         0.416452         1.079553
 C         2.872400         1.865775         1.083350
 O         2.767541         2.589037        -0.090120
 C         3.122451         1.893550        -1.249636
 C         2.582194         0.379112        -1.110966
 H        -0.350722         0.487417         1.186663
 H        -0.099150         1.390088        -0.150403
 H        -0.710640        -0.105511        -0.573038
 H         3.985156        -1.016494         0.128962
 H         2.358289         0.055908         2.137885
 H         2.050770         2.327734         1.758924
 H         3.942184         1.924737         1.514959
 H         2.740192         2.485371        -2.146203
 H         4.196934         1.862552        -1.514945
 H         2.389952        -0.209058        -2.006231
