19
Iteration:  2319
 C        -0.106949         0.500383         0.044769
 C         1.376673         0.086321         0.031660
 O         1.911084        -1.313719         0.043830
 C         3.168560        -0.460724         0.112103
 C         2.464135         0.480183         1.062653
 C         2.967814         1.863169         1.162802
 O         2.771641         2.632476        -0.072561
 C         3.031816         1.777257        -1.326198
 C         2.620312         0.354335        -1.058488
 H        -0.578781         0.070809         0.963167
 H         0.021943         1.616547        -0.133851
 H        -0.774341         0.243172        -0.779075
 H         4.094784        -0.922970         0.143618
 H         2.215813        -0.006446         2.004130
 H         2.169283         2.333367         1.957222
 H         3.883691         2.007872         1.613800
 H         2.476484         2.412441        -2.192676
 H         4.094864         1.782366        -1.566377
 H         2.455231        -0.299624        -1.995348
