19
Iteration:  3338charge 0 multiplicity 1
 C        -0.047040         0.372118         0.036739
 C         1.455375         0.118441        -0.011749
 O         1.862448        -1.304004         0.110028
 C         3.082169        -0.522640         0.085129
 C         2.528346         0.553854         1.120104
 C         2.952088         1.966210         1.197499
 O         2.831531         2.617689        -0.152175
 C         3.060898         1.753748        -1.276604
 C         2.434342         0.398010        -1.077712
 H        -0.485272         0.481770         1.095944
 H        -0.312236         1.309710        -0.401754
 H        -0.616709        -0.461910        -0.546427
 H         4.107519        -0.924647         0.122482
 H         2.337144         0.056114         2.102956
 H         2.357266         2.676258         1.840159
 H         4.077097         2.029526         1.368185
 H         2.553976         2.178679        -2.200800
 H         4.075297         1.573009        -1.569560
 H         2.455743        -0.063008        -2.109170
