19
Iteration:  1370
 C         0.001211         0.421728         0.023542
 C         1.451595         0.160942        -0.051787
 O         1.823511        -1.335541         0.000935
 C         3.041701        -0.541952         0.138454
 C         2.496478         0.473607         1.093400
 C         3.063333         1.932348         1.138392
 O         2.743130         2.667597        -0.045145
 C         2.992159         1.788698        -1.196095
 C         2.562715         0.355113        -1.088063
 H        -0.380090         0.066151         0.885734
 H        -0.303063         1.494865        -0.117277
 H        -0.439986        -0.030152        -0.768502
 H         3.934692        -0.977181         0.277697
 H         2.287928         0.167277         2.113481
 H         2.605415         2.545982         1.914846
 H         4.132879         1.870323         1.283745
 H         2.407001         2.245548        -1.978994
 H         3.981334         1.959811        -1.678336
 H         2.640833        -0.191778        -2.012203
