19
Iteration:  3453charge 0 multiplicity 1
 C        -0.053279         0.525130         0.021100
 C         1.388108         0.091766        -0.023172
 O         1.926113        -1.288245         0.169250
 C         3.127699        -0.511387         0.128237
 C         2.429956         0.488221         1.060585
 C         3.045933         1.929021         1.081017
 O         2.713830         2.639650        -0.160912
 C         2.983439         1.746526        -1.263622
 C         2.582706         0.286081        -1.040437
 H        -0.621918        -0.036179         0.778881
 H         0.003622         1.572859         0.351650
 H        -0.525898         0.399782        -0.972973
 H         4.213983        -0.930346         0.306448
 H         2.242150         0.108478         2.066364
 H         2.534514         2.412795         1.918049
 H         4.225868         1.908654         1.389259
 H         2.406934         2.154183        -2.097052
 H         4.027502         1.892130        -1.517183
 H         2.443414        -0.220102        -2.015639
