19
Iteration:  3057
 C        -0.070471         0.436902         0.038893
 C         1.425145         0.146042         0.028177
 O         1.879651        -1.267012         0.055389
 C         3.106546        -0.468684         0.086817
 C         2.506068         0.472009         1.182831
 C         3.025436         1.946919         1.157181
 O         2.692243         2.594218        -0.159532
 C         3.009892         1.734870        -1.303185
 C         2.661699         0.316507        -1.064264
 H        -0.624428        -0.070053         0.872350
 H        -0.245918         1.592735         0.345779
 H        -0.623199         0.286813        -0.928724
 H         4.107020        -0.877676         0.277275
 H         2.187188         0.120182         2.202510
 H         2.490261         2.737345         1.806444
 H         4.093103         1.841506         1.132056
 H         2.362867         2.028239        -2.111464
 H         4.117409         1.744107        -1.582153
 H         2.262422        -0.104847        -1.960057
