19
Iteration:  2174charge 0 multiplicity 1
 C         0.066865         0.547867        -0.076413
 C         1.473915         0.105337        -0.003344
 O         1.888579        -1.325587         0.078952
 C         3.122391        -0.496225         0.107732
 C         2.461935         0.423432         1.118733
 C         2.992150         1.875479         1.133183
 O         2.755288         2.611402        -0.106818
 C         2.925543         1.818705        -1.213582
 C         2.537564         0.371367        -1.014187
 H        -0.515571         0.136750         0.812580
 H         0.005366         1.571892        -0.188207
 H        -0.485942         0.255295        -0.994849
 H         4.076010        -1.023260         0.147964
 H         2.132923         0.040539         2.115117
 H         2.431412         2.475861         1.981721
 H         4.088572         1.848369         1.388749
 H         2.044681         2.108622        -1.929164
 H         3.916950         1.993273        -1.681058
 H         2.290243        -0.183599        -1.923904
