19
Iteration:  3304charge 0 multiplicity 1
 C        -0.045457         0.395230        -0.004408
 C         1.427564         0.098558         0.072867
 O         1.827994        -1.317770         0.229324
 C         3.098648        -0.507349         0.053542
 C         2.551202         0.473714         1.080766
 C         2.943727         1.961373         1.135467
 O         2.833939         2.643896        -0.158485
 C         3.065938         1.799714        -1.292857
 C         2.481397         0.410070        -1.103928
 H        -0.721155         0.035738         0.852522
 H        -0.193453         1.419266        -0.213965
 H        -0.477504        -0.176946        -0.926225
 H         4.072063        -0.942385         0.001551
 H         2.525114        -0.007118         2.072751
 H         2.387741         2.528327         1.923906
 H         3.904227         1.913071         1.580683
 H         2.457634         2.372021        -2.091306
 H         4.094453         1.764569        -1.630798
 H         2.332082        -0.148060        -2.088177
