19
Iteration:  1795
 C        -0.076125         0.369086         0.092986
 C         1.374774         0.145785        -0.101337
 O         1.864466        -1.301612         0.020133
 C         3.110314        -0.493922         0.090328
 C         2.502571         0.498474         1.122411
 C         3.041102         1.992442         1.174548
 O         2.764559         2.624263        -0.087541
 C         3.054771         1.781013        -1.192595
 C         2.544595         0.358479        -1.103350
 H        -0.469342         0.194048         1.088918
 H        -0.481057         1.462229        -0.406583
 H        -0.700966        -0.188659        -0.597206
 H         4.014632        -1.234496        -0.121780
 H         2.227096         0.191933         2.119179
 H         2.393272         2.463559         1.863790
 H         4.059582         1.991745         1.478192
 H         2.812929         2.342123        -2.086687
 H         4.209467         1.533717        -1.271887
 H         2.492571        -0.181449        -2.077168
