19
Iteration:  3104charge 0 multiplicity 1
 C        -0.124381         0.366239        -0.088444
 C         1.330594         0.107013         0.035296
 O         1.862086        -1.334633         0.194929
 C         3.171130        -0.458368         0.037810
 C         2.536775         0.488562         1.058153
 C         3.147909         2.098900         1.149066
 O         2.788957         2.622157        -0.115486
 C         3.049770         1.795761        -1.256768
 C         2.399927         0.299619        -1.000247
 H        -0.526383        -0.107616         0.782850
 H        -0.522257         1.437978        -0.008797
 H        -0.484560        -0.115870        -0.962515
 H         4.051959        -0.932577        -0.089987
 H         2.300468         0.068536         2.034992
 H         2.502696         2.391418         1.998136
 H         4.168648         1.907694         1.284255
 H         2.554047         2.290922        -2.189571
 H         4.158210         1.781550        -1.422016
 H         2.485799        -0.142240        -2.004534
