19
Iteration:  4280
 C        -0.035504         0.506826        -0.065025
 C         1.425638         0.138078         0.001705
 O         1.879802        -1.344165         0.174765
 C         3.095210        -0.452995         0.155206
 C         2.477193         0.486935         1.124720
 C         3.107911         1.910841         1.107125
 O         2.712274         2.559976        -0.129460
 C         2.963248         1.819689        -1.284317
 C         2.557023         0.290960        -1.032447
 H        -0.687795         0.265294         0.767314
 H        -0.162438         1.604565        -0.082143
 H        -0.472283        -0.028518        -0.897092
 H         4.177574        -0.756371         0.085850
 H         2.354103        -0.084777         2.002181
 H         2.462308         2.592031         1.787508
 H         4.234286         1.934676         1.082804
 H         2.331156         2.391062        -2.053577
 H         3.986658         2.004730        -1.603529
 H         2.459770        -0.235614        -1.983777
