19
Iteration:  2901
 C         0.012829         0.356938        -0.094319
 C         1.457300         0.171078         0.071240
 O         1.895573        -1.298564         0.152866
 C         3.075884        -0.408697         0.078796
 C         2.517075         0.492206         1.148864
 C         3.032950         1.914609         1.124505
 O         2.882015         2.599809        -0.109484
 C         2.909175         1.808845        -1.282106
 C         2.398395         0.356317        -1.086263
 H        -0.480541        -0.211846         0.814597
 H        -0.267006         1.410833         0.013221
 H        -0.522313         0.042771        -1.089727
 H         4.060268        -0.951244        -0.097233
 H         2.238639         0.090419         2.108363
 H         2.350987         2.440306         1.802311
 H         4.055567         2.000114         1.659682
 H         2.370640         2.315497        -2.006216
 H         3.949380         1.517986        -1.555427
 H         2.212665        -0.216202        -1.962356
