19
Iteration:  2983charge 0 multiplicity 1
 C        -0.108874         0.419649        -0.020293
 C         1.431647         0.204007         0.019344
 O         1.882336        -1.309860         0.127233
 C         3.112296        -0.478429         0.099319
 C         2.648845         0.444230         1.109550
 C         2.974285         1.927418         1.139683
 O         2.678119         2.581544        -0.130578
 C         3.101740         1.755798        -1.253129
 C         2.456104         0.423670        -1.061524
 H        -0.521893         0.368206         0.928778
 H        -0.369317         1.479938        -0.335949
 H        -0.642491        -0.206361        -0.631042
 H         3.979916        -1.085510         0.087548
 H         2.712192         0.000931         2.140478
 H         2.316257         2.505854         1.930626
 H         4.125882         2.037864         1.356913
 H         2.657122         2.248728        -2.244155
 H         4.170064         1.616233        -1.609925
 H         2.455785        -0.118188        -2.055091
