19
Iteration:  1471
 C        -0.165653         0.458265         0.041043
 C         1.365364         0.133553        -0.049871
 O         1.957045        -1.255246         0.067853
 C         3.094206        -0.504644         0.150451
 C         2.505899         0.392277         1.105780
 C         3.007050         1.866993         1.147848
 O         2.782646         2.586585        -0.111079
 C         3.010779         1.855652        -1.284792
 C         2.633772         0.417816        -1.070236
 H        -0.765905         0.041652         0.886552
 H        -0.204585         1.509687         0.129747
 H        -0.708118         0.247475        -0.881516
 H         3.930107        -1.141406         0.125617
 H         2.217480        -0.188571         2.049838
 H         2.494332         2.481991         1.905642
 H         4.169582         1.830612         1.384117
 H         2.162376         2.273308        -1.875406
 H         4.140320         1.770027        -1.513557
 H         2.564523        -0.013204        -2.096472
