19
Iteration:  4588charge 0 multiplicity 1
 C        -0.051722         0.395280         0.025832
 C         1.417059         0.100981         0.050296
 O         1.813249        -1.263383         0.142039
 C         3.220264        -0.403214         0.063247
 C         2.456825         0.534289         1.066372
 C         2.955860         1.932187         1.126579
 O         2.802440         2.606256        -0.186204
 C         3.057841         1.731162        -1.256999
 C         2.474729         0.383132        -1.026519
 H        -0.504174        -0.252424         0.818000
 H        -0.146111         1.383440         0.272911
 H        -0.568350        -0.037466        -0.837955
 H         4.071770        -1.061127        -0.029529
 H         2.362834         0.153963         2.109280
 H         2.467353         2.537710         1.966758
 H         3.999957         1.816658         1.415731
 H         2.711920         2.207885        -2.215818
 H         4.142512         1.602845        -1.670771
 H         2.484149        -0.365369        -1.801467
