19
Iteration:  2095
 C        -0.147731         0.350532         0.050957
 C         1.379408         0.140100        -0.108523
 O         1.865958        -1.330667        -0.009496
 C         3.076492        -0.517931         0.124904
 C         2.469220         0.481993         1.094523
 C         3.042515         2.032048         1.152896
 O         2.767938         2.585164        -0.093888
 C         3.120917         1.779528        -1.213539
 C         2.578167         0.464116        -1.061374
 H        -0.392010         0.175593         1.127089
 H        -0.452944         1.364970         0.294361
 H        -0.829543        -0.261048        -0.609850
 H         4.107708        -1.083894         0.360949
 H         2.407389         0.025448         2.115195
 H         2.419630         2.574632         1.921996
 H         4.174906         1.913946         1.296969
 H         2.706456         2.337493        -2.086565
 H         4.234013         1.700283        -1.387982
 H         2.498645        -0.032548        -1.958199
