19
Iteration:  1849charge 0 multiplicity 1
 C        -0.032956         0.368153        -0.165956
 C         1.414616         0.136015        -0.002272
 O         1.826430        -1.314747         0.155181
 C         3.092947        -0.486085         0.117131
 C         2.533188         0.490862         1.077981
 C         3.129626         1.913137         1.165703
 O         2.800073         2.636832        -0.044190
 C         2.939214         1.836894        -1.249352
 C         2.481083         0.384385        -1.073301
 H        -0.535002        -0.239126         0.588138
 H        -0.338327         1.521537        -0.063333
 H        -0.507819         0.031621        -1.081964
 H         4.114374        -1.129379         0.297478
 H         2.471011         0.146910         2.087467
 H         2.708149         2.433472         1.970836
 H         4.217064         1.832668         1.471986
 H         2.254655         2.303079        -1.914658
 H         4.024858         1.775654        -1.594363
 H         2.121128         0.002587        -2.065789
