19
Iteration:  1886charge 0 multiplicity 1
 C         0.002191         0.483860        -0.035692
 C         1.472030         0.136261        -0.037830
 O         1.916636        -1.347238         0.069983
 C         3.107930        -0.523168         0.206101
 C         2.388873         0.482694         1.128128
 C         3.027813         1.826283         1.129857
 O         2.807658         2.608935        -0.095251
 C         2.911657         1.854184        -1.316777
 C         2.540976         0.433201        -1.040687
 H        -0.409176        -0.073971         0.826555
 H        -0.106623         1.647112         0.176033
 H        -0.480690         0.199908        -1.020345
 H         4.001160        -1.027277         0.390755
 H         2.192074        -0.054901         2.100575
 H         2.492626         2.439778         1.949726
 H         4.063246         1.780464         1.257286
 H         2.198959         2.327324        -2.078175
 H         3.956303         1.956765        -1.789154
 H         2.336012        -0.152883        -1.898896
