19
Iteration:  3125charge 0 multiplicity 1
 C        -0.073740         0.308793        -0.021149
 C         1.402018         0.136226         0.072910
 O         1.922726        -1.256119         0.124544
 C         3.087654        -0.451134         0.070351
 C         2.455811         0.544461         1.186570
 C         3.052189         1.931913         1.091682
 O         2.843906         2.608851        -0.157114
 C         2.993023         1.764584        -1.246483
 C         2.452899         0.352819        -1.092889
 H        -0.651181         0.212180         0.902823
 H        -0.107546         1.504992        -0.268636
 H        -0.511298        -0.190966        -0.879068
 H         3.952995        -0.987918         0.235643
 H         2.560215         0.044063         2.151482
 H         2.406166         2.454229         1.916568
 H         4.164146         1.825446         1.386889
 H         2.461254         2.227543        -2.159606
 H         4.098266         1.832502        -1.512539
 H         2.171368        -0.065808        -2.075636
