19
Iteration:   782
 C        -0.118038         0.422823        -0.129842
 C         1.440619         0.129638         0.102891
 O         1.831386        -1.311086         0.140513
 C         3.149113        -0.538140        -0.029062
 C         2.593776         0.396965         1.103141
 C         3.020364         1.908080         1.204522
 O         2.807375         2.700316        -0.064610
 C         2.979134         1.814162        -1.267672
 C         2.515571         0.366434        -1.067638
 H        -0.566059         0.136612         0.787993
 H        -0.350983         1.639297        -0.157747
 H        -0.633130         0.057859        -0.970712
 H         4.103202        -1.250036        -0.013436
 H         2.612266        -0.047158         2.182472
 H         2.313877         2.434896         1.925059
 H         3.961291         2.214648         1.704093
 H         2.345496         2.346102        -1.979949
 H         4.026259         1.876957        -1.703597
 H         2.251374        -0.087230        -2.074409
