19
Iteration:  1122
 C        -0.083802         0.405044        -0.016131
 C         1.435516         0.213541         0.000499
 O         1.816254        -1.309458         0.071039
 C         3.083143        -0.514138         0.080405
 C         2.541764         0.485577         1.092663
 C         3.018099         1.865428         1.156312
 O         2.727431         2.582058        -0.045781
 C         3.039545         1.832243        -1.240228
 C         2.613137         0.386929        -1.115825
 H        -0.587318        -0.042545         0.921550
 H        -0.173857         1.423455         0.107033
 H        -0.660012         0.135876        -0.929903
 H         4.060368        -1.125641         0.174080
 H         2.376138        -0.001654         2.033519
 H         2.600735         2.546850         1.890231
 H         4.131148         1.868831         1.375355
 H         2.486675         2.372090        -2.000278
 H         4.077985         1.940411        -1.464493
 H         2.464138        -0.025683        -2.096199
