19
Iteration:   577
 C        -0.025696         0.438706         0.038361
 C         1.342395         0.134096         0.079355
 O         1.865887        -1.393578         0.067970
 C         3.120662        -0.486357         0.008610
 C         2.523333         0.462314         1.036230
 C         3.009927         1.974009         1.133248
 O         2.744213         2.648056        -0.080913
 C         3.126055         1.774222        -1.160412
 C         2.428255         0.384513        -1.114905
 H        -0.696809         0.286231         0.885826
 H        -0.230383         1.561103        -0.409879
 H        -0.551268        -0.203111        -0.704387
 H         4.163060        -0.868718        -0.050540
 H         2.489112        -0.009082         2.085433
 H         2.510646         2.557127         1.966782
 H         4.104256         1.985139         1.297856
 H         2.783760         2.402853        -2.084261
 H         4.263057         1.729468        -0.998038
 H         2.345733        -0.143318        -2.119761
