19
Iteration:  3013
 C         0.084730         0.487643         0.010478
 C         1.474879         0.094759         0.056031
 O         1.888434        -1.322024         0.172968
 C         3.127693        -0.547928         0.014588
 C         2.485847         0.491857         1.092576
 C         2.867022         1.948213         1.193881
 O         2.725409         2.692009        -0.139957
 C         3.038562         1.724513        -1.280146
 C         2.449503         0.362874        -1.108646
 H        -0.406728         0.335503         1.011112
 H         0.103703         1.645313        -0.116622
 H        -0.460112         0.013283        -0.863328
 H         3.945169        -1.226971        -0.171741
 H         2.526074        -0.085331         2.039134
 H         2.320573         2.577727         1.989274
 H         3.944406         1.971387         1.216883
 H         2.498598         2.181396        -2.067945
 H         4.149632         1.702308        -1.400225
 H         2.461061        -0.225587        -1.999770
