19
Iteration:  1440charge 0 multiplicity 1
 C         0.093235         0.372011         0.085409
 C         1.450497         0.118867        -0.002911
 O         1.832610        -1.277091         0.005733
 C         3.051624        -0.490557         0.047823
 C         2.456445         0.481003         1.053509
 C         2.906449         1.962581         1.171778
 O         2.821343         2.655554        -0.084730
 C         3.039553         1.740366        -1.157636
 C         2.479085         0.373174        -1.084019
 H        -0.359010         0.136698         1.143110
 H        -0.008556         1.380305        -0.148567
 H        -0.455241        -0.136572        -0.795755
 H         3.978837        -1.113046        -0.045727
 H         2.297391        -0.024543         2.053017
 H         2.359222         2.502434         1.859567
 H         3.947744         2.023188         1.395538
 H         2.821985         2.276678        -2.083507
 H         4.152522         1.704583        -1.440858
 H         2.322648         0.058190        -2.133024
