19
Iteration:   959charge 0 multiplicity 1
 C        -0.101246         0.493102        -0.066101
 C         1.418947         0.151799         0.001677
 O         1.851200        -1.266487         0.067588
 C         3.174913        -0.568136         0.109614
 C         2.574074         0.468868         1.089582
 C         3.033267         1.912958         1.140387
 O         2.734151         2.556602        -0.046577
 C         3.002714         1.850362        -1.238266
 C         2.515432         0.355022        -1.036316
 H        -0.731151         0.062715         0.824407
 H        -0.176373         1.544270        -0.095010
 H        -0.567030         0.020862        -0.968973
 H         3.991600        -1.196026         0.240738
 H         2.417858         0.091298         2.062687
 H         2.534989         2.423245         1.964009
 H         4.125091         1.934685         1.298681
 H         2.354572         2.124693        -2.012602
 H         4.010897         2.058538        -1.753736
 H         2.503330        -0.123419        -1.992883
