19
Iteration:  1342charge 0 multiplicity 1
 C        -0.057189         0.477982        -0.066424
 C         1.435524         0.128449        -0.028893
 O         1.858002        -1.292158         0.142755
 C         3.107816        -0.474510         0.119348
 C         2.478821         0.397738         1.128031
 C         3.024179         1.817665         1.133281
 O         2.772907         2.593226        -0.045218
 C         2.971226         1.852927        -1.302827
 C         2.567006         0.405395        -1.075499
 H        -0.710474        -0.059442         0.807060
 H        -0.132939         1.546651         0.100870
 H        -0.569286         0.335552        -1.153146
 H         4.287299        -0.861613         0.098643
 H         2.446509         0.068375         2.187661
 H         2.686606         2.545312         1.904048
 H         4.179947         1.661871         1.297848
 H         2.158262         2.334472        -1.951703
 H         3.911817         2.096260        -1.782753
 H         2.563902        -0.205403        -2.041072
