19
Iteration:  2709charge 0 multiplicity 1
 C        -0.130590         0.372393         0.019635
 C         1.373313         0.085291         0.061629
 O         1.871174        -1.370941         0.105998
 C         3.146206        -0.531704         0.073745
 C         2.420793         0.524827         1.074617
 C         3.066547         1.972042         1.113702
 O         2.824414         2.647224        -0.127209
 C         3.011426         1.845152        -1.267432
 C         2.617758         0.386095        -1.059230
 H        -0.726589        -0.087803         0.825527
 H        -0.416477         1.467756         0.096976
 H        -0.594324         0.066325        -0.907915
 H         4.082708        -0.948871         0.215268
 H         2.331630         0.086166         2.097384
 H         2.463147         2.560924         1.802369
 H         4.164349         1.875291         1.401108
 H         2.279689         2.320934        -1.944122
 H         4.077941         1.996939        -1.518707
 H         2.394231        -0.059528        -2.022082
