19
Iteration:  4724
 C        -0.059530         0.426705         0.137971
 C         1.454428         0.208753        -0.038612
 O         1.826183        -1.300467         0.090449
 C         3.115273        -0.517973         0.136936
 C         2.471309         0.512131         1.092803
 C         2.893508         1.932268         1.101403
 O         2.777294         2.605248        -0.165230
 C         3.090041         1.706721        -1.334057
 C         2.619564         0.402220        -1.049858
 H        -0.494600         0.057974         1.079521
 H        -0.459363         1.425160         0.277996
 H        -0.458190        -0.134178        -0.679265
 H         4.123488        -0.989862         0.170196
 H         2.360915         0.113014         2.087924
 H         2.234893         2.569055         1.802809
 H         3.928031         1.929827         1.470740
 H         2.717748         2.186857        -2.215051
 H         4.230089         1.789318        -1.605153
 H         2.392335        -0.320741        -1.850107
