19
Iteration:  3283charge 0 multiplicity 1
 C        -0.010314         0.431198        -0.020211
 C         1.433243         0.148580         0.033935
 O         1.916251        -1.296064         0.042974
 C         3.118214        -0.487407         0.112551
 C         2.441188         0.594106         1.121815
 C         3.081939         1.959867         1.129864
 O         2.779268         2.600484        -0.134857
 C         2.974561         1.699911        -1.239702
 C         2.443430         0.318686        -1.037834
 H        -0.520443        -0.139734         0.858335
 H        -0.179751         1.441222         0.190127
 H        -0.686762         0.074262        -0.901941
 H         4.201966        -0.923993         0.171213
 H         2.104473         0.216365         2.110609
 H         2.548412         2.569631         1.924543
 H         4.055221         2.049940         1.452107
 H         2.448528         2.146484        -2.169992
 H         4.064594         1.580361        -1.494885
 H         2.297499        -0.312264        -1.970500
