19
Iteration:  2146charge 0 multiplicity 1
 C        -0.083673         0.475163        -0.081567
 C         1.425328         0.140117        -0.006448
 O         1.898100        -1.334652         0.159786
 C         3.084957        -0.481394         0.028239
 C         2.618773         0.482799         1.093320
 C         3.032685         1.932452         1.216606
 O         2.698433         2.547040        -0.063630
 C         3.057656         1.822807        -1.223441
 C         2.472660         0.347006        -1.112910
 H        -0.681435         0.321287         0.786157
 H        -0.183641         1.679616        -0.243764
 H        -0.520764         0.070935        -1.014181
 H         4.105649        -0.981541        -0.129548
 H         2.266192         0.136018         2.052188
 H         2.257787         2.307246         1.781198
 H         4.071601         2.097750         1.500186
 H         2.634939         2.354993        -2.019310
 H         4.164702         1.802112        -1.245075
 H         2.287039        -0.268859        -2.059266
