19
Iteration:  3364charge 0 multiplicity 1
 C        -0.142934         0.425076         0.091709
 C         1.380565         0.119144         0.022812
 O         1.917141        -1.265969         0.078321
 C         3.155493        -0.456308         0.143350
 C         2.436960         0.527933         1.106174
 C         2.982991         1.889689         1.058496
 O         2.797596         2.589458        -0.128142
 C         3.054073         1.799729        -1.265248
 C         2.552182         0.326606        -1.087861
 H        -0.535774         0.414674         1.090539
 H        -0.447965         1.436635        -0.411330
 H        -0.654764        -0.279523        -0.504799
 H         4.255025        -0.958849         0.248604
 H         2.317915         0.074594         2.109158
 H         2.598290         2.570445         1.776117
 H         3.960032         1.782887         1.132198
 H         2.606519         2.257156        -2.123578
 H         4.173683         1.740196        -1.453756
 H         2.505627        -0.244564        -1.991983
