19
Iteration:   683
 C        -0.082266         0.429473        -0.031209
 C         1.426820         0.149109         0.031935
 O         1.863721        -1.269205         0.082573
 C         3.080327        -0.500181        -0.000852
 C         2.592506         0.470601         1.106360
 C         3.028644         1.896213         1.209971
 O         2.746330         2.562798        -0.105501
 C         2.982683         1.801779        -1.211031
 C         2.556908         0.378929        -1.093067
 H        -0.596280        -0.032299         0.774666
 H        -0.335409         1.586867         0.082075
 H        -0.498787         0.131505        -0.933951
 H         4.098336        -1.067760         0.082608
 H         2.315286         0.094411         2.186246
 H         2.355970         2.532873         1.902722
 H         4.040035         2.074508         1.583750
 H         2.713134         2.265074        -2.200206
 H         4.112538         1.845686        -1.281072
 H         2.253919        -0.091788        -2.069437
