19
Iteration:   806
 C        -0.039044         0.414388        -0.074822
 C         1.409199         0.114415         0.027214
 O         1.892782        -1.346150         0.029230
 C         3.103611        -0.468719         0.140024
 C         2.464677         0.513400         1.103540
 C         3.068143         1.867594         1.142589
 O         2.851702         2.605928        -0.080934
 C         2.905803         1.834241        -1.217028
 C         2.499776         0.382951        -1.042278
 H        -0.619456        -0.019217         0.777758
 H        -0.179236         1.517774        -0.002330
 H        -0.480322         0.199899        -0.996664
 H         4.064872        -0.968543         0.171463
 H         2.282409         0.140940         2.149382
 H         2.708839         2.502348         1.967380
 H         4.130185         1.893989         1.354590
 H         2.197248         2.433432        -1.900939
 H         3.907355         1.882623        -1.725327
 H         2.379867        -0.092857        -2.011110
