19
Iteration:  1033
 C        -0.109927         0.363363         0.034053
 C         1.427407         0.174119        -0.056052
 O         1.818440        -1.255488        -0.008385
 C         3.131957        -0.514951         0.125560
 C         2.445006         0.506386         1.122208
 C         3.041041         1.903914         1.192697
 O         2.803320         2.573867        -0.064245
 C         2.997312         1.819908        -1.279562
 C         2.632195         0.375057        -1.101685
 H        -0.378858         0.031154         1.069076
 H        -0.212709         1.476337         0.038362
 H        -0.771042        -0.090312        -0.667581
 H         4.097623        -1.155650         0.226647
 H         2.150905         0.148419         2.086247
 H         2.525800         2.505623         1.923613
 H         4.145050         1.883261         1.515684
 H         2.503198         2.274887        -2.137246
 H         4.012520         1.977640        -1.460654
 H         2.446233        -0.128050        -1.977072
