19
Iteration:  4744
 C        -0.124049         0.373453         0.090894
 C         1.411758         0.122756         0.026183
 O         1.857347        -1.274576         0.096334
 C         3.063486        -0.530484         0.058893
 C         2.519014         0.544868         1.087140
 C         2.938818         2.044529         1.158969
 O         2.845096         2.629618        -0.218523
 C         3.085944         1.721597        -1.214383
 C         2.549140         0.315239        -1.097133
 H        -0.319723        -0.200941         1.038528
 H        -0.230748         1.354717         0.403460
 H        -0.569650         0.044365        -0.869283
 H         3.971252        -1.062614         0.259590
 H         2.254515         0.131303         2.098217
 H         2.125484         2.737085         1.704375
 H         4.078552         2.073324         1.674823
 H         2.678349         2.217015        -2.173606
 H         4.209414         1.761469        -1.550653
 H         2.480986        -0.287309        -2.055682
