19
Iteration:    64charge 0 multiplicity 1
 C        -0.127682         0.485351         0.065780
 C         1.336384         0.037770        -0.037430
 O         1.873660        -1.405274        -0.017088
 C         3.149987        -0.458915         0.099105
 C         2.476815         0.505100         1.074979
 C         3.017596         1.894584         1.089600
 O         2.813093         2.771982        -0.024681
 C         3.057178         1.778666        -1.218795
 C         2.539826         0.297615        -1.036440
 H        -0.520581         0.308943         1.122171
 H        -0.279993         1.674898         0.002031
 H        -0.721747        -0.047752        -0.588662
 H         4.068060        -0.882812         0.065959
 H         2.248353         0.123313         1.978032
 H         2.721385         2.405572         1.989516
 H         4.123647         1.737976         1.047566
 H         2.580567         2.233310        -2.035778
 H         4.166028         1.818828        -1.524218
 H         2.470353        -0.171958        -1.924392
