19
Iteration:  1299
 C        -0.092570         0.458691        -0.083218
 C         1.364844         0.082220         0.087327
 O         1.844000        -1.361095         0.125509
 C         3.059168        -0.469983        -0.018758
 C         2.614940         0.443690         1.113832
 C         3.020489         1.910210         1.156849
 O         2.765421         2.664889        -0.092915
 C         3.076609         1.813570        -1.187587
 C         2.521845         0.420196        -1.055899
 H        -0.714930        -0.098257         0.726004
 H        -0.267239         1.455073        -0.021121
 H        -0.464889         0.213463        -1.154051
 H         4.021691        -1.209480        -0.065664
 H         2.550301        -0.097824         2.087716
 H         2.344153         2.395444         1.930564
 H         4.121339         2.120049         1.321611
 H         2.720709         2.293725        -2.124546
 H         4.117745         1.874258        -1.460728
 H         2.281716        -0.158610        -1.998951
