19
Iteration:  2765
 C        -0.113865         0.462946        -0.095448
 C         1.427043         0.108854         0.063808
 O         1.920140        -1.261604         0.138221
 C         3.110639        -0.501749         0.085477
 C         2.618406         0.471814         1.157631
 C         3.022106         1.883169         1.095921
 O         2.725654         2.639058        -0.084010
 C         2.931183         1.767787        -1.266820
 C         2.531918         0.332771        -1.066794
 H        -0.757691         0.299155         0.774990
 H        -0.010581         1.616790        -0.377242
 H        -0.615195        -0.059930        -0.922370
 H         4.105131        -0.881988        -0.053855
 H         2.602911        -0.076063         2.116983
 H         2.505257         2.431923         1.863234
 H         4.053650         2.022176         1.541973
 H         2.367789         2.373260        -2.042896
 H         4.047961         1.794975        -1.589177
 H         2.285559        -0.316816        -1.951965
