19
Iteration:  4192charge 0 multiplicity 1
 C        -0.047931         0.428253         0.114682
 C         1.396839         0.086190        -0.055321
 O         1.859839        -1.316259         0.050154
 C         3.093159        -0.502066         0.159926
 C         2.421806         0.572364         1.122403
 C         2.995308         1.996646         1.121148
 O         2.772902         2.604894        -0.187463
 C         3.079260         1.773082        -1.250079
 C         2.534307         0.354049        -1.061200
 H        -0.244389        -0.099098         0.999919
 H        -0.155761         1.528147         0.021757
 H        -0.710135        -0.065665        -0.515022
 H         4.103680        -1.056520         0.183891
 H         2.424282         0.231905         2.132869
 H         2.383662         2.509212         1.899564
 H         4.158057         1.864149         1.231310
 H         2.875273         2.097861        -2.310592
 H         4.225890         1.679627        -1.398302
 H         2.383040        -0.256059        -1.964131
