19
Iteration:   119
 C        -0.060890         0.442620        -0.132806
 C         1.403250         0.112480         0.056872
 O         1.812168        -1.276344         0.129948
 C         3.099364        -0.574963         0.008660
 C         2.695595         0.466367         1.098280
 C         3.075949         1.924998         1.173386
 O         2.749751         2.635163        -0.080780
 C         2.955940         1.773925        -1.179796
 C         2.487074         0.392198        -1.039714
 H        -0.761136        -0.148205         0.543063
 H        -0.265255         1.621058         0.072173
 H        -0.432677         0.306618        -1.112276
 H         3.923132        -1.202466        -0.065483
 H         2.474088        -0.024486         1.973064
 H         2.525669         2.464811         1.929716
 H         4.119720         2.244809         1.353200
 H         2.379209         2.250536        -1.937574
 H         4.077855         1.766088        -1.443961
 H         2.340170         0.077131        -2.004524
