19
Iteration:  3799charge 0 multiplicity 1
 C        -0.105303         0.412107        -0.001239
 C         1.417263         0.135668         0.018219
 O         1.815440        -1.340226         0.156763
 C         3.137835        -0.503975         0.078150
 C         2.491257         0.587936         1.104212
 C         3.070153         1.971023         1.099157
 O         2.707601         2.615652        -0.123927
 C         3.073447         1.801414        -1.300443
 C         2.566998         0.286448        -1.040758
 H        -0.495787        -0.187148         0.781962
 H        -0.248615         1.559764         0.070183
 H        -0.472745         0.031188        -0.885075
 H         3.977908        -1.181366         0.197987
 H         2.421412         0.198391         2.164057
 H         2.669535         2.684837         1.923654
 H         4.073301         1.992134         1.318996
 H         2.601487         2.263818        -2.164154
 H         4.120830         1.677872        -1.517658
 H         2.405756        -0.182981        -1.994603
