19
Iteration:  4300
 C        -0.066885         0.403401        -0.041338
 C         1.446548         0.127249        -0.005758
 O         1.872961        -1.246681         0.110943
 C         3.119965        -0.462568         0.161742
 C         2.474806         0.532643         1.096299
 C         3.056124         1.923928         1.112460
 O         2.756757         2.592918        -0.082678
 C         2.957317         1.711078        -1.325456
 C         2.572385         0.356185        -1.043018
 H        -0.503357         0.265479         0.962430
 H        -0.177916         1.603818        -0.038024
 H        -0.561155        -0.134705        -0.841885
 H         3.996105        -1.230681         0.320014
 H         2.152908         0.222185         2.086474
 H         2.803816         2.591574         2.095507
 H         4.122729         1.790075         1.061992
 H         2.169030         2.106169        -2.100751
 H         4.093036         1.858274        -1.563521
 H         2.353579        -0.163523        -1.986149
