19
Iteration:  1571
 C        -0.017044         0.466713         0.129468
 C         1.387028         0.129584        -0.023054
 O         1.871992        -1.376578        -0.015025
 C         3.140333        -0.485686         0.048871
 C         2.425609         0.463050         1.057135
 C         2.914167         1.925415         1.140432
 O         2.789574         2.655375        -0.087602
 C         3.064858         1.799506        -1.193327
 C         2.586733         0.368788        -1.091768
 H        -0.481879         0.395323         1.179344
 H        -0.124652         1.473748        -0.064386
 H        -0.684060        -0.136612        -0.576886
 H         4.105297        -0.916796         0.253369
 H         2.096985         0.037787         2.053120
 H         2.506665         2.414773         1.977630
 H         4.023066         1.928806         1.468777
 H         2.496078         2.184468        -2.060865
 H         4.214138         1.775180        -1.408785
 H         2.489607        -0.076617        -2.091977
