19
Iteration:  4029
 O        -0.540180         0.314455         0.428365
 C        -1.755034         0.913694         0.192037
 C        -3.192390         0.275745        -0.061852
 C        -3.326313         1.832512        -0.185714
 C        -2.525559         1.943920         1.136597
 C        -1.747575         3.107438         1.501273
 C        -0.810064         3.487209         0.350920
 O        -1.417341         3.155350        -0.870257
 C        -2.017233         1.876280        -1.015963
 H        -0.721267        -0.587621         0.539364
 H        -3.368835        -0.372496        -0.908601
 H        -3.827732        -0.121424         0.770493
 H        -4.114414         2.564429        -0.340634
 H        -2.959795         1.442039         1.989390
 H        -2.223497         4.056662         1.806789
 H        -0.997279         2.773119         2.318545
 H        -0.667580         4.548792         0.297628
 H         0.139256         2.974617         0.416997
 H        -2.044113         1.698784        -2.122677
