19
Iteration:    79
 O        -0.723581        -0.168883         0.567560
 C        -1.804455         0.795753         0.314603
 C        -3.279042         0.377047         0.059858
 C        -3.287427         1.917180        -0.088035
 C        -2.394535         2.008108         1.247413
 C        -1.511359         3.290026         1.374391
 C        -1.158568         3.932927         0.064534
 O        -1.190717         2.979147        -1.019195
 C        -1.943077         1.815280        -0.917386
 H        -0.506495        -0.460774        -0.316478
 H        -3.510259        -0.163265        -0.901904
 H        -3.689066        -0.070792         0.913308
 H        -4.180033         2.601419        -0.443528
 H        -2.837477         1.649561         2.160172
 H        -2.070923         4.086435         1.867139
 H        -0.648346         3.125730         1.994031
 H        -1.907194         4.697746        -0.140265
 H        -0.076242         4.301888         0.066983
 H        -1.994154         1.342514        -1.922881
