19
Iteration:  4605
 O        -0.526199         0.203014         0.327587
 C        -1.779783         0.868635         0.102335
 C        -3.177352         0.245052        -0.308434
 C        -3.423416         1.788688        -0.127426
 C        -2.467288         1.800573         1.209297
 C        -1.909957         3.214703         1.491035
 C        -0.774447         3.458343         0.479606
 O        -1.300461         3.250657        -0.831591
 C        -2.012846         2.035003        -0.906138
 H        -0.521034         0.123246         1.382359
 H        -3.047833         0.048113        -1.371053
 H        -3.444151        -0.619643         0.302293
 H        -4.398608         2.256814        -0.192732
 H        -2.956694         1.248721         2.071500
 H        -2.753673         3.947371         1.477704
 H        -1.379651         3.383596         2.449193
 H        -0.480047         4.503565         0.666557
 H         0.018703         2.747824         0.686597
 H        -1.862766         1.900850        -1.992988
