19
Iteration:  1390charge 0 multiplicity 1
 O        -0.714765        -0.011822         0.515421
 C        -1.712470         0.839528         0.265286
 C        -3.133214         0.324480        -0.089557
 C        -3.411749         1.750139        -0.070194
 C        -2.509810         1.909494         1.181833
 C        -1.580627         3.218113         1.426404
 C        -0.722332         3.622813         0.186981
 O        -1.448744         3.207036        -1.012057
 C        -2.091111         2.030191        -0.934979
 H        -0.197998         0.217257         1.251302
 H        -3.235063        -0.168605        -1.096240
 H        -3.456550        -0.323641         0.757265
 H        -4.261725         2.384302        -0.294402
 H        -2.958924         1.559950         2.135664
 H        -2.334588         3.922579         1.605066
 H        -0.971651         3.196387         2.379878
 H        -0.665180         4.636062         0.037761
 H         0.293752         3.139829         0.242123
 H        -2.264037         1.697590        -1.959792
