19
Iteration:  1494
 O        -0.584533         0.209518         0.383927
 C        -1.759464         0.963519         0.200185
 C        -3.199580         0.287412         0.013483
 C        -3.436046         1.794612         0.016045
 C        -2.453994         1.916650         1.138638
 C        -1.854361         3.278171         1.353386
 C        -0.720216         3.454944         0.280205
 O        -1.214751         3.100874        -0.971846
 C        -2.129499         1.966578        -0.924216
 H        -0.698373        -0.776566         0.417169
 H        -3.395453        -0.234559        -0.913632
 H        -3.582712        -0.326512         0.825931
 H        -4.375839         2.284024        -0.030605
 H        -2.838866         1.460997         2.044850
 H        -2.658639         4.070616         1.565246
 H        -1.231575         3.252881         2.329656
 H        -0.266585         4.541769         0.409353
 H         0.152148         2.812985         0.527251
 H        -2.268254         1.739506        -2.001643
