19
Iteration:  1792
 O        -0.688061         0.028158         0.442072
 C        -1.803106         0.879781         0.204756
 C        -3.171803         0.309141        -0.006827
 C        -3.381487         1.769370        -0.002312
 C        -2.371078         1.906417         1.216386
 C        -1.787926         3.239151         1.404681
 C        -0.812768         3.628290         0.263777
 O        -1.287957         3.134650        -1.048046
 C        -2.061083         1.967647        -0.919055
 H         0.160763         0.531576         0.199170
 H        -3.574269        -0.143683        -0.938271
 H        -3.607324        -0.195874         0.862706
 H        -4.305656         2.326231        -0.408924
 H        -2.762322         1.554190         2.169067
 H        -2.536191         3.967516         1.601483
 H        -1.088224         3.192001         2.311110
 H        -0.558910         4.753354         0.273339
 H         0.150269         3.081245         0.373601
 H        -2.190082         1.649523        -1.980283
