19
Iteration:  3922
 O        -0.612498         0.178529         0.391249
 C        -1.798898         0.898203         0.293305
 C        -3.253449         0.235756        -0.120512
 C        -3.382758         1.832453        -0.094975
 C        -2.514149         1.920205         1.178682
 C        -1.754274         3.158380         1.483746
 C        -0.843574         3.613853         0.281632
 O        -1.235930         3.059702        -0.975946
 C        -1.971510         1.949499        -0.877161
 H         0.050350         0.650709        -0.045889
 H        -3.365957        -0.149780        -1.172387
 H        -3.986675        -0.172862         0.616039
 H        -4.340814         2.292916        -0.243725
 H        -3.012981         1.502332         2.077369
 H        -2.213997         4.014990         1.934438
 H        -1.005858         2.797132         2.213373
 H        -1.052783         4.720113         0.202755
 H         0.286702         3.505343         0.628982
 H        -2.153722         1.447658        -1.886815
