19
Iteration:  4691charge 0 multiplicity 1
 O        -0.522312         0.159655         0.464595
 C        -1.697519         0.873722         0.082655
 C        -3.163924         0.335301        -0.436586
 C        -3.352962         1.830989        -0.087417
 C        -2.495200         1.785975         1.130813
 C        -1.879071         3.057247         1.470919
 C        -0.897917         3.566978         0.508036
 O        -1.316987         3.227172        -0.844633
 C        -1.974645         2.066816        -0.892781
 H        -0.810711        -0.244327         1.240955
 H        -3.161245         0.068107        -1.493189
 H        -3.663977        -0.384941         0.187049
 H        -4.296291         2.363850        -0.099662
 H        -2.839715         1.308070         2.104236
 H        -2.706402         3.740040         1.698052
 H        -1.237067         2.976831         2.382033
 H        -0.839273         4.628895         0.763687
 H         0.149421         3.176025         0.549677
 H        -2.219057         1.705450        -1.859337
