19
Iteration:  2521charge 0 multiplicity 1
 O        -0.576548         0.152439         0.298569
 C        -1.752891         0.845990         0.181873
 C        -3.136483         0.237950        -0.160887
 C        -3.353752         1.819622         0.071052
 C        -2.552037         1.908879         1.281988
 C        -1.837068         3.282332         1.429777
 C        -0.752579         3.559324         0.261208
 O        -1.302697         3.170169        -1.001256
 C        -2.056018         1.950296        -0.815949
 H        -0.662907        -0.757280         0.731747
 H        -3.300711        -0.351542        -1.131308
 H        -3.671483        -0.147716         0.707965
 H        -4.217693         2.327140        -0.042420
 H        -3.023458         1.644056         2.248364
 H        -2.485341         4.140566         1.354785
 H        -1.398273         3.360219         2.453740
 H        -0.363280         4.595086         0.150551
 H         0.062854         2.861639         0.346236
 H        -2.173159         1.644141        -1.865997
