19
Iteration:  4747
 O        -0.519851         0.132654         0.432105
 C        -1.736922         0.890335         0.105873
 C        -3.097522         0.275241        -0.301735
 C        -3.373368         1.821301        -0.300517
 C        -2.648926         1.900992         1.075663
 C        -1.889300         3.106784         1.625380
 C        -0.759993         3.536683         0.534795
 O        -1.415489         3.288346        -0.720628
 C        -1.924664         1.958556        -0.912062
 H        -0.079515         0.114209        -0.463432
 H        -3.149835        -0.210915        -1.275516
 H        -3.633492        -0.308973         0.433439
 H        -4.379190         2.204376        -0.515726
 H        -3.067007         1.316595         1.946794
 H        -2.669826         3.849152         1.884454
 H        -1.306006         2.968610         2.554494
 H        -0.394848         4.591345         0.497334
 H         0.117530         2.830715         0.348061
 H        -1.901587         1.763800        -2.005815
