19
Iteration:  1002charge 0 multiplicity 1
 O        -0.696123         0.006391         0.405781
 C        -1.802486         0.917564         0.292532
 C        -3.146606         0.287257        -0.098257
 C        -3.380745         1.844940        -0.056645
 C        -2.417452         1.977723         1.175722
 C        -1.569664         3.187111         1.438700
 C        -0.893996         3.709600         0.200541
 O        -1.326171         3.016886        -0.947088
 C        -2.103560         1.935379        -0.899657
 H        -0.146283         0.364626         1.093589
 H        -3.210736        -0.181055        -1.135035
 H        -3.777012        -0.237824         0.640603
 H        -4.260400         2.439509        -0.299864
 H        -3.033505         1.754770         2.063397
 H        -2.246483         4.024587         1.780217
 H        -0.745525         2.905646         2.313225
 H        -1.123567         4.837968         0.030964
 H         0.263486         3.644926         0.202360
 H        -2.187956         1.473823        -1.960406
