19
Iteration:  3097charge 0 multiplicity 1
 O        -0.590358         0.155557         0.476595
 C        -1.747413         0.836873         0.174241
 C        -3.233427         0.390013        -0.066560
 C        -3.282794         1.874675        -0.021525
 C        -2.370757         1.839713         1.232137
 C        -1.780396         3.201822         1.484706
 C        -0.867030         3.550610         0.302113
 O        -1.413018         3.187964        -1.049146
 C        -1.997936         1.914496        -0.974105
 H        -0.443609        -0.664616        -0.007067
 H        -3.480224        -0.149522        -1.085975
 H        -3.615898        -0.185910         0.811500
 H        -4.229032         2.482758        -0.078188
 H        -2.989981         1.382421         2.049386
 H        -2.630212         3.833900         1.798318
 H        -1.024223         3.081271         2.231106
 H        -0.873672         4.650022         0.271722
 H         0.131001         3.013809         0.348932
 H        -2.026575         1.494863        -2.045001
