19
Iteration:  2382
 O        -0.635205         0.017761         0.301436
 C        -1.755988         0.835694         0.262415
 C        -3.181148         0.261480        -0.063692
 C        -3.298483         1.826059        -0.117269
 C        -2.356983         1.926201         1.164097
 C        -1.776978         3.351026         1.464742
 C        -0.874353         3.611845         0.314087
 O        -1.387119         3.145929        -0.937751
 C        -2.050781         1.977016        -0.925048
 H        -0.425471        -0.288865         1.155932
 H        -3.247210        -0.408914        -0.957557
 H        -3.621712        -0.222978         0.827387
 H        -4.316938         2.365822        -0.105239
 H        -2.825857         1.455202         2.047840
 H        -2.555416         4.188115         1.656875
 H        -1.207276         3.161086         2.389490
 H        -0.655739         4.648319         0.254924
 H         0.092493         3.021440         0.435569
 H        -1.940279         1.716050        -2.020894
