19
Iteration:   922charge 0 multiplicity 1
 O        -0.588912         0.119353         0.422628
 C        -1.791131         0.894151         0.311973
 C        -3.212916         0.240110        -0.046871
 C        -3.399682         1.794866        -0.038114
 C        -2.447193         1.966925         1.233869
 C        -1.785696         3.363363         1.343423
 C        -0.712532         3.475191         0.281668
 O        -1.305462         3.136311        -0.996088
 C        -2.106743         1.949263        -0.898289
 H        -0.578000        -0.110120        -0.495398
 H        -3.058867        -0.198387        -1.016765
 H        -3.925149        -0.314589         0.574179
 H        -4.454399         2.197034        -0.082578
 H        -2.865690         1.525615         2.130703
 H        -2.314588         4.319480         1.417619
 H        -1.181986         3.304577         2.325146
 H        -0.381129         4.487582         0.213649
 H         0.178167         2.806584         0.476558
 H        -2.232137         1.414140        -1.909026
