19
Iteration:  3522charge 0 multiplicity 1
 O        -0.558784         0.041743         0.399883
 C        -1.741491         0.876977         0.172777
 C        -3.191582         0.259921        -0.169865
 C        -3.328111         1.886762        -0.030991
 C        -2.468945         1.853597         1.198146
 C        -1.783982         3.229354         1.564033
 C        -0.889945         3.634097         0.365744
 O        -1.312747         3.194301        -1.027610
 C        -2.001240         1.983200        -0.962290
 H        -0.999094        -0.670045         0.946391
 H        -3.129638        -0.243322        -1.213073
 H        -3.725454        -0.263477         0.630083
 H        -4.135365         2.494835        -0.228194
 H        -2.981179         1.352403         2.026244
 H        -2.596587         3.894052         1.627030
 H        -1.211839         3.149441         2.547874
 H        -0.893175         4.696116         0.170613
 H         0.090449         3.256170         0.612275
 H        -2.197423         1.600078        -2.026692
