19
Iteration:   280charge 0 multiplicity 1
 O        -0.584943         0.189840         0.515261
 C        -1.814347         0.882054         0.278440
 C        -3.223641         0.376621        -0.041526
 C        -3.333011         1.941962        -0.019376
 C        -2.502916         1.948412         1.232879
 C        -1.676263         3.208824         1.435945
 C        -0.756060         3.486724         0.142775
 O        -1.381602         3.019483        -1.099488
 C        -2.098353         1.792300        -0.892484
 H         0.057890         0.930878         0.722393
 H        -3.372790        -0.209320        -0.863457
 H        -3.752326        -0.101739         0.805825
 H        -4.120222         2.695699        -0.379045
 H        -3.053414         1.662508         2.068418
 H        -2.357872         3.974431         1.715750
 H        -1.041282         3.027137         2.210716
 H        -0.743986         4.482855        -0.183498
 H         0.315416         3.051758         0.184668
 H        -2.210909         1.213000        -1.868995
