19
Iteration:  3753
 O        -0.528780         0.273657         0.361253
 C        -1.811042         0.927333         0.233378
 C        -3.161799         0.263776        -0.034438
 C        -3.465808         1.791227        -0.153823
 C        -2.593259         1.973612         1.070837
 C        -1.771383         3.236790         1.485444
 C        -0.678350         3.430837         0.384856
 O        -1.305742         3.101620        -0.916470
 C        -2.083573         1.885401        -0.882653
 H         0.001789         0.838900        -0.188437
 H        -3.191289        -0.451757        -0.919895
 H        -3.632651        -0.087769         0.888384
 H        -4.416881         2.254809        -0.482135
 H        -3.086936         1.536721         1.970962
 H        -2.481815         4.009704         1.783932
 H        -1.296931         2.819923         2.406729
 H        -0.297393         4.478809         0.415122
 H         0.127798         2.640724         0.400562
 H        -2.186862         1.577233        -1.929088
