19
Iteration:  2301charge 0 multiplicity 1
 O        -0.518164         0.359227         0.337530
 C        -1.783046         0.894221         0.243651
 C        -3.157780         0.299231        -0.024604
 C        -3.399655         1.834875        -0.106237
 C        -2.547134         1.976910         1.161874
 C        -1.721638         3.184082         1.422179
 C        -0.743687         3.440111         0.276522
 O        -1.373161         3.122599        -0.914734
 C        -2.107024         1.859717        -0.910858
 H        -0.602593        -0.521726         0.761899
 H        -3.290927        -0.372740        -1.005667
 H        -3.808536        -0.262047         0.764608
 H        -4.400473         2.129054        -0.260939
 H        -3.015849         1.555827         2.122255
 H        -2.314469         4.059960         1.885369
 H        -1.149892         2.827164         2.293270
 H        -0.131780         4.412436         0.264243
 H         0.074140         2.627061         0.404549
 H        -2.173285         1.707302        -2.044986
