19
Iteration:  2350
 O        -0.560839         0.146218         0.255964
 C        -1.761072         0.847600         0.209649
 C        -3.221849         0.270464        -0.110428
 C        -3.351757         1.844068         0.040130
 C        -2.483342         1.897065         1.262288
 C        -1.838229         3.274061         1.351373
 C        -0.823526         3.484180         0.303342
 O        -1.286549         3.113885        -0.963610
 C        -2.033642         2.004448        -0.858409
 H        -0.440876        -0.100156         1.216072
 H        -3.341031        -0.166799        -1.058235
 H        -3.473017        -0.269404         0.830596
 H        -4.310550         2.533435        -0.038040
 H        -2.847905         1.484574         2.196406
 H        -2.598036         4.130555         1.329956
 H        -1.329589         3.429674         2.361420
 H        -0.635519         4.526030         0.304726
 H         0.132293         2.923810         0.401205
 H        -2.029910         1.608325        -1.902592
