19
Iteration:  2197charge 0 multiplicity 1
 O        -0.523715         0.116472         0.251218
 C        -1.748111         0.824814         0.210843
 C        -3.207812         0.343119        -0.016957
 C        -3.350404         1.825923        -0.086683
 C        -2.466445         1.950665         1.261025
 C        -1.768673         3.317175         1.515056
 C        -0.849450         3.637111         0.296545
 O        -1.297772         3.012778        -0.950566
 C        -2.084401         1.899999        -0.953931
 H        -0.505460        -0.393793         1.017707
 H        -3.495671        -0.200515        -0.959142
 H        -3.815447        -0.128995         0.794741
 H        -4.321407         2.298304        -0.389220
 H        -3.051482         1.642158         2.103443
 H        -2.531675         4.000675         1.573440
 H        -1.212839         3.328715         2.503487
 H        -0.732627         4.693509         0.092079
 H         0.209415         3.245736         0.367456
 H        -2.282321         1.583154        -1.927291
