19
Iteration:  4297
 O        -0.647521         0.197025         0.365838
 C        -1.785498         0.913013         0.193235
 C        -3.029211         0.324607        -0.200117
 C        -3.397700         1.863599         0.002857
 C        -2.521895         1.802385         1.231585
 C        -1.844996         3.164553         1.462369
 C        -0.815149         3.479384         0.375996
 O        -1.256942         3.120257        -1.009152
 C        -2.062726         2.006947        -0.921446
 H        -0.195701         0.565710         1.173548
 H        -3.256403        -0.117399        -1.145789
 H        -3.468197        -0.309629         0.591412
 H        -4.357293         2.397280        -0.136479
 H        -2.864678         1.194374         1.991605
 H        -2.690896         3.875335         1.540245
 H        -1.196953         3.121641         2.344093
 H        -0.649468         4.561734         0.379852
 H         0.261538         3.115547         0.466949
 H        -2.220294         1.590952        -1.947992
