19
Iteration:   267charge 0 multiplicity 1
 O        -0.632178         0.106058         0.453960
 C        -1.760943         0.903330         0.285153
 C        -3.233414         0.320315         0.099193
 C        -3.361220         1.873376        -0.074311
 C        -2.460115         1.989774         1.197895
 C        -1.710078         3.266279         1.390452
 C        -0.836461         3.529701         0.145605
 O        -1.317185         3.026573        -1.078294
 C        -2.070567         1.881278        -0.932263
 H         0.068001         0.535905         0.960492
 H        -3.387899        -0.146363        -0.880830
 H        -3.706659        -0.194284         0.940422
 H        -4.392151         2.509340        -0.280793
 H        -2.795391         1.500083         2.149825
 H        -2.323669         4.133946         1.602914
 H        -1.049543         3.220327         2.226529
 H        -0.439110         4.492756         0.158351
 H         0.044339         2.862051         0.431870
 H        -2.234028         1.515616        -1.962301
