19
Iteration:   857
 O        -0.589907         0.312690         0.664621
 C        -1.864840         0.908415         0.217655
 C        -3.205064         0.247347        -0.095327
 C        -3.446689         1.816653        -0.089105
 C        -2.551017         1.920566         1.169731
 C        -1.528796         3.123343         1.407148
 C        -0.672184         3.452596         0.185318
 O        -1.439840         3.188567        -1.007126
 C        -2.064548         1.953737        -0.954327
 H        -0.462435        -0.483931         0.119956
 H        -3.380952        -0.316731        -0.998770
 H        -3.732065        -0.223451         0.733165
 H        -4.366923         2.403800        -0.253973
 H        -2.982745         1.496126         2.051639
 H        -2.013668         4.055368         1.767094
 H        -0.804547         2.806289         2.284879
 H        -0.737455         4.490770         0.216569
 H         0.361035         2.941286         0.153183
 H        -2.007983         1.476631        -1.975985
