19
Iteration:  4761charge 0 multiplicity 1
 O        -0.512348         0.239606         0.412007
 C        -1.773197         0.837095         0.167853
 C        -3.140836         0.248196        -0.359217
 C        -3.340317         1.786648        -0.266826
 C        -2.533888         1.803513         1.179510
 C        -1.847317         3.161787         1.612993
 C        -0.841110         3.445190         0.577424
 O        -1.350349         3.299131        -0.821020
 C        -2.002280         2.068309        -0.964628
 H        -0.314871        -0.409001        -0.264847
 H        -3.095833        -0.194218        -1.364986
 H        -3.703480        -0.326388         0.401303
 H        -4.210756         2.404576        -0.573990
 H        -3.209789         1.356181         1.954508
 H        -2.519052         4.031206         1.569483
 H        -1.497046         2.952434         2.631398
 H        -0.629454         4.520454         0.658238
 H        -0.003143         2.914339         0.886899
 H        -1.858499         1.658632        -2.007837
