19
Iteration:  1977charge 0 multiplicity 1
 O        -0.594466         0.097511         0.334822
 C        -1.784609         0.782981         0.229036
 C        -3.172656         0.359974        -0.053357
 C        -3.287750         1.854771         0.043982
 C        -2.451177         1.907688         1.287196
 C        -1.804616         3.295668         1.373153
 C        -0.886826         3.598522         0.243808
 O        -1.335187         3.103212        -1.045484
 C        -1.960505         1.960775        -0.891536
 H        -0.654786        -0.737012         0.839696
 H        -3.488647        -0.260652        -0.974184
 H        -3.693269        -0.221171         0.780513
 H        -4.348403         2.218646         0.012331
 H        -2.902217         1.362605         2.176812
 H        -2.455041         4.174515         1.381318
 H        -1.346768         3.367451         2.441795
 H        -0.608853         4.706485         0.150390
 H         0.128816         3.197935         0.296716
 H        -2.168628         1.583498        -1.825178
