19
Iteration:  4378
 O        -0.565237         0.140696         0.525475
 C        -1.737464         0.881018         0.160903
 C        -3.064791         0.311637        -0.271300
 C        -3.462600         1.813890        -0.087313
 C        -2.451966         1.852731         1.196080
 C        -1.801983         3.184616         1.500792
 C        -0.793066         3.529801         0.371687
 O        -1.352557         3.189940        -0.914489
 C        -2.103091         2.031131        -0.939841
 H        -0.355609        -0.702752        -0.007088
 H        -3.089453         0.102271        -1.382862
 H        -3.590391        -0.456772         0.335355
 H        -4.431990         2.349781        -0.226337
 H        -2.825192         1.403452         2.189246
 H        -2.728429         3.819481         1.605722
 H        -1.277020         3.334621         2.446993
 H        -0.586675         4.629362         0.314596
 H         0.135984         2.941212         0.468704
 H        -2.180977         1.763096        -1.979719
