19
Iteration:  4907
 O        -0.492216         0.248845         0.476866
 C        -1.759898         0.818661         0.119220
 C        -3.178409         0.241072        -0.456328
 C        -3.326965         1.844540        -0.182882
 C        -2.548893         1.769350         1.164078
 C        -1.919802         3.047685         1.601887
 C        -0.868375         3.524977         0.550018
 O        -1.304377         3.300858        -0.805462
 C        -2.006922         2.094187        -0.938588
 H        -0.192903        -0.510072        -0.064665
 H        -2.989083        -0.164038        -1.509710
 H        -3.724832        -0.562738         0.152877
 H        -4.185032         2.512070        -0.480307
 H        -3.170555         1.234401         1.904091
 H        -2.689800         3.805908         1.798646
 H        -1.270334         3.035829         2.523701
 H        -0.599945         4.640602         0.682616
 H         0.047724         2.915782         0.719877
 H        -1.763564         1.948730        -2.044527
