19
Iteration:  2511charge 0 multiplicity 1
 O        -0.539679         0.165929         0.276422
 C        -1.765328         0.838292         0.268381
 C        -3.136744         0.269806        -0.104282
 C        -3.427283         1.790664        -0.056754
 C        -2.462197         1.963506         1.289487
 C        -1.827178         3.355780         1.433383
 C        -0.734567         3.455821         0.276492
 O        -1.356158         3.159557        -0.963766
 C        -2.071768         1.982554        -0.853023
 H        -0.819696        -0.788743         0.553050
 H        -3.192471        -0.197330        -1.132228
 H        -3.618595        -0.386938         0.628582
 H        -4.207885         2.360110        -0.405990
 H        -2.788135         1.394759         2.199471
 H        -2.605389         4.102902         1.426672
 H        -1.363381         3.344652         2.395376
 H        -0.375551         4.474387         0.311466
 H         0.082945         2.798424         0.541397
 H        -2.269754         1.548417        -1.862742
