19
Iteration:  2423charge 0 multiplicity 1
 O        -0.531245         0.203378         0.461936
 C        -1.786207         0.849578         0.249602
 C        -3.214723         0.266371        -0.178438
 C        -3.392929         1.847089        -0.088187
 C        -2.424007         1.899020         1.188985
 C        -1.630554         3.169277         1.505022
 C        -0.871815         3.566407         0.269622
 O        -1.381265         3.158853        -0.991292
 C        -2.094138         1.956137        -0.941967
 H        -0.737150        -0.668167         0.976259
 H        -3.272688        -0.157872        -1.186010
 H        -3.698776        -0.107883         0.658388
 H        -4.244260         2.454508        -0.131878
 H        -2.931945         1.573631         2.140783
 H        -2.392462         3.830589         1.929412
 H        -0.895949         3.089603         2.233790
 H        -0.774551         4.648436         0.092955
 H         0.109140         3.087813         0.398521
 H        -2.182021         1.538656        -1.997331
