19
Iteration:  4150
 O        -0.676791         0.132014         0.307413
 C        -1.752787         0.961231         0.263598
 C        -3.027990         0.312922        -0.063522
 C        -3.380923         1.809123        -0.171104
 C        -2.573049         1.938295         1.185528
 C        -1.802638         3.189687         1.547162
 C        -0.802876         3.504179         0.345368
 O        -1.314854         3.137648        -0.963067
 C        -2.017768         1.927015        -0.910443
 H         0.147352         0.649870         0.496319
 H        -3.223956        -0.271539        -0.956395
 H        -3.672635        -0.161910         0.650883
 H        -4.367595         2.211598        -0.377443
 H        -3.097890         1.576365         2.082347
 H        -2.561040         3.993621         1.714260
 H        -1.190996         3.028754         2.505205
 H        -0.481796         4.520051         0.086692
 H         0.094315         2.726634         0.528909
 H        -2.081664         1.429798        -1.898394
