19
Iteration:  1493charge 0 multiplicity 1
 O        -0.583088         0.207303         0.384775
 C        -1.766377         0.975825         0.201041
 C        -3.197231         0.284196         0.015303
 C        -3.443640         1.794536         0.015238
 C        -2.453405         1.914855         1.131452
 C        -1.845843         3.281250         1.353648
 C        -0.729822         3.463281         0.281349
 O        -1.205902         3.088873        -0.969863
 C        -2.129658         1.972391        -0.930907
 H        -0.701665        -0.803929         0.404311
 H        -3.372276        -0.259602        -0.928023
 H        -3.560445        -0.344134         0.845004
 H        -4.414281         2.308447         0.002227
 H        -2.847886         1.453851         2.028727
 H        -2.617379         4.039863         1.559576
 H        -1.226535         3.256869         2.365833
 H        -0.299309         4.531166         0.443669
 H         0.154563         2.836908         0.509320
 H        -2.289605         1.740064        -1.975689
