19
Iteration:  4759charge 0 multiplicity 1
 O        -0.503893         0.225404         0.420585
 C        -1.778837         0.837039         0.148197
 C        -3.135026         0.240670        -0.351949
 C        -3.354362         1.793762        -0.281803
 C        -2.539945         1.825682         1.182874
 C        -1.847885         3.157115         1.621032
 C        -0.833087         3.450006         0.574090
 O        -1.369825         3.298043        -0.822877
 C        -1.977794         2.058892        -0.947168
 H        -0.266711        -0.391779        -0.367878
 H        -3.105925        -0.210530        -1.343677
 H        -3.724822        -0.306003         0.377241
 H        -4.256819         2.376062        -0.571551
 H        -3.235546         1.373500         1.950385
 H        -2.506031         4.043508         1.598893
 H        -1.509599         2.941637         2.648630
 H        -0.607240         4.539941         0.620150
 H         0.073304         2.903668         0.916257
 H        -1.870681         1.732820        -2.023101
