19
Iteration:  1078
 O        -0.679524         0.086374         0.388662
 C        -1.794049         0.921686         0.299224
 C        -3.198160         0.266841        -0.061120
 C        -3.393397         1.802331        -0.091435
 C        -2.487786         1.961357         1.223369
 C        -1.624246         3.212459         1.434669
 C        -0.787840         3.529935         0.200849
 O        -1.344256         3.158335        -0.990362
 C        -2.080527         1.927664        -0.891524
 H        -0.209691         0.396458         1.191398
 H        -3.302079        -0.034087        -1.125754
 H        -3.391301        -0.526528         0.640058
 H        -4.325463         2.318430        -0.104777
 H        -2.941459         1.625894         2.163688
 H        -2.217111         4.126648         1.565819
 H        -0.942604         3.121313         2.167125
 H        -0.595347         4.636754         0.158019
 H         0.213246         3.129924         0.282409
 H        -2.118986         1.544983        -1.978294
