19
Iteration:   304
 O        -0.631794         0.322501         0.656612
 C        -1.842865         0.904039         0.302933
 C        -3.317905         0.284796        -0.015833
 C        -3.455159         1.813087        -0.086503
 C        -2.461504         1.930925         1.189507
 C        -1.520225         3.143140         1.391383
 C        -0.747551         3.549573         0.144333
 O        -1.320547         3.069950        -1.052856
 C        -2.116268         1.835817        -0.947824
 H         0.103800         0.685425         0.075008
 H        -3.398777        -0.145472        -0.996240
 H        -3.972838        -0.319061         0.606008
 H        -4.242447         2.357112        -0.473297
 H        -2.825982         1.556456         2.091716
 H        -2.170178         3.854565         1.886612
 H        -0.744256         2.833612         2.074826
 H        -0.609572         4.619798        -0.167831
 H         0.245304         2.997107         0.233486
 H        -2.212166         1.472337        -2.010847
