19
Iteration:  4374charge 0 multiplicity 1
 O        -0.578367         0.125018         0.524474
 C        -1.714381         0.875839         0.161429
 C        -3.078187         0.339710        -0.257133
 C        -3.445342         1.814341        -0.113701
 C        -2.464983         1.850558         1.234498
 C        -1.798295         3.205163         1.499953
 C        -0.804229         3.543558         0.391692
 O        -1.351078         3.207163        -0.925519
 C        -2.104253         2.011416        -0.959790
 H        -0.355391        -0.526568        -0.109579
 H        -3.035288         0.039027        -1.295463
 H        -3.565882        -0.402887         0.366161
 H        -4.491779         2.162246        -0.217976
 H        -2.786864         1.318700         2.070114
 H        -2.679118         3.788753         1.716492
 H        -1.288473         3.245960         2.465361
 H        -0.502911         4.570561         0.206380
 H         0.055791         2.847935         0.470878
 H        -2.157975         1.689389        -2.025910
