19
Iteration:   738
 O        -0.605008         0.264965         0.361149
 C        -1.833706         0.852464         0.276382
 C        -3.295531         0.311324         0.096277
 C        -3.374259         1.811729        -0.095690
 C        -2.503957         1.950392         1.199564
 C        -1.684001         3.264462         1.433604
 C        -0.731304         3.472368         0.261502
 O        -1.283978         3.034591        -1.003728
 C        -2.091376         1.835419        -0.950249
 H         0.196526         0.813215         0.140793
 H        -3.483430        -0.136824        -0.869008
 H        -3.803395        -0.097284         0.966116
 H        -4.227231         2.417296        -0.414889
 H        -3.052739         1.611554         2.049508
 H        -2.364911         4.033870         1.405126
 H        -1.198614         3.365257         2.409205
 H        -0.488901         4.487431         0.117344
 H         0.296489         3.013573         0.420984
 H        -2.079101         1.440059        -1.895898
