19
Iteration:  4751charge 0 multiplicity 1
 O        -0.498354         0.155951         0.436818
 C        -1.764084         0.873301         0.091939
 C        -3.102167         0.254925        -0.316161
 C        -3.381037         1.825414        -0.315282
 C        -2.609315         1.895258         1.129663
 C        -1.885244         3.115824         1.632786
 C        -0.767066         3.502797         0.556791
 O        -1.413763         3.291300        -0.770258
 C        -1.917340         1.975289        -0.899888
 H        -0.160087        -0.037159        -0.490869
 H        -3.156805        -0.252273        -1.301645
 H        -3.751693        -0.322006         0.382405
 H        -4.399415         2.216283        -0.497071
 H        -3.133656         1.366622         1.956007
 H        -2.623680         3.917185         1.828129
 H        -1.382141         3.014441         2.612276
 H        -0.451402         4.546256         0.474799
 H         0.105921         2.915309         0.534358
 H        -1.932383         1.898628        -2.006335
