19
Iteration:   402charge 0 multiplicity 1
 O        -0.743019         0.041712         0.367248
 C        -1.794538         0.894423         0.153705
 C        -3.185583         0.297354         0.112390
 C        -3.417618         1.813988         0.054463
 C        -2.408409         1.974080         1.216963
 C        -1.845477         3.386919         1.334837
 C        -0.808880         3.553982         0.218652
 O        -1.151714         3.040628        -0.988243
 C        -2.034661         1.896362        -0.942220
 H         0.048285         0.669491         0.389037
 H        -3.312678        -0.307719        -0.764452
 H        -3.420446        -0.211853         1.046460
 H        -4.382622         2.273704         0.061603
 H        -2.877664         1.473795         2.009770
 H        -2.718606         4.021695         1.255499
 H        -1.442678         3.575035         2.271908
 H        -0.336336         4.580238         0.097594
 H         0.147488         2.983559         0.506329
 H        -2.044850         1.537513        -2.021940
