19
Iteration:  2578charge 0 multiplicity 1
 O        -0.566268         0.108204         0.353482
 C        -1.757615         0.849029         0.229055
 C        -3.258524         0.319205        -0.063378
 C        -3.414179         1.822939        -0.076075
 C        -2.497968         1.967649         1.172936
 C        -1.671708         3.113104         1.494789
 C        -0.880406         3.608822         0.285967
 O        -1.317030         3.196085        -0.983078
 C        -2.002266         1.896753        -0.915287
 H        -0.165771         0.001381         1.174165
 H        -3.345705        -0.227965        -1.088251
 H        -3.794463        -0.235023         0.736326
 H        -4.324438         2.432335        -0.425650
 H        -2.865827         1.443443         2.151305
 H        -2.392672         3.952324         1.668088
 H        -1.068348         2.811164         2.362945
 H        -0.986124         4.687137         0.266919
 H         0.235940         3.572045         0.412845
 H        -1.963153         1.490717        -2.022716
