19
Iteration:   585charge 0 multiplicity 1
 O        -0.581847         0.222798         0.356590
 C        -1.874903         0.817963         0.241857
 C        -3.310824         0.325389         0.000537
 C        -3.370136         1.882683        -0.018914
 C        -2.458744         1.937326         1.250323
 C        -1.709976         3.343967         1.361987
 C        -0.872429         3.719990         0.218074
 O        -1.110314         2.784392        -0.936794
 C        -2.078832         1.788140        -0.864643
 H        -0.147484         0.341214        -0.470868
 H        -3.464616        -0.158630        -0.975847
 H        -4.026002        -0.023833         0.793779
 H        -4.256346         2.590193        -0.156360
 H        -2.735398         1.565400         2.258836
 H        -2.429156         4.211927         1.404368
 H        -1.111689         3.437410         2.288412
 H        -1.062701         4.671654        -0.079265
 H         0.224339         3.688488         0.454566
 H        -2.393587         1.484192        -1.795091
