19
Iteration:  2948charge 0 multiplicity 1
 O        -0.595462         0.018358         0.447648
 C        -1.759107         0.829143         0.230219
 C        -3.262484         0.384679        -0.098581
 C        -3.351889         1.844399        -0.097806
 C        -2.353563         1.813476         1.186156
 C        -1.703300         3.157530         1.482453
 C        -0.902780         3.589555         0.223871
 O        -1.425968         3.283477        -1.022023
 C        -1.954735         1.940566        -0.906454
 H        -0.202568         0.198773         1.271838
 H        -3.188501        -0.226316        -0.958270
 H        -3.853741         0.014889         0.749286
 H        -4.312307         2.409167        -0.161194
 H        -2.866350         1.242058         2.084118
 H        -2.460798         3.880163         1.802452
 H        -1.017814         3.011165         2.407966
 H        -0.779467         4.687854        -0.008944
 H         0.104482         3.326236         0.355785
 H        -2.222234         1.638874        -1.894887
