19
Iteration:   734
 O        -0.620198         0.278479         0.393362
 C        -1.814135         0.843590         0.273589
 C        -3.279739         0.309369         0.096980
 C        -3.379110         1.824526        -0.126003
 C        -2.457180         1.940435         1.173307
 C        -1.670804         3.244704         1.436404
 C        -0.711107         3.462519         0.268571
 O        -1.303148         3.047583        -1.025676
 C        -2.112533         1.847792        -0.935175
 H         0.095420         0.870404         0.237039
 H        -3.597683        -0.175216        -0.835207
 H        -3.818032        -0.099980         0.973352
 H        -4.322614         2.409283        -0.348469
 H        -3.007365         1.582540         2.059390
 H        -2.396524         4.139788         1.298038
 H        -1.299604         3.236362         2.517774
 H        -0.496086         4.567758         0.280610
 H         0.233679         2.956822         0.375907
 H        -2.117882         1.340205        -1.990304
