19
Iteration:  1629charge 0 multiplicity 1
 O        -0.638721         0.069330         0.304494
 C        -1.783691         0.854459         0.200384
 C        -3.208658         0.280584         0.030509
 C        -3.331207         1.858205        -0.066444
 C        -2.488936         1.971424         1.213984
 C        -1.757735         3.188052         1.448675
 C        -0.895768         3.725242         0.214148
 O        -1.242806         3.068742        -0.942166
 C        -1.984981         1.928677        -0.926390
 H        -0.870748        -0.577014         0.936582
 H        -3.419895        -0.351654        -0.823781
 H        -3.447682        -0.246299         0.935629
 H        -4.227028         2.538413        -0.257191
 H        -2.941930         1.450310         2.074311
 H        -2.477419         4.067796         1.829871
 H        -1.045750         3.091260         2.251807
 H        -0.980012         4.810809         0.206775
 H         0.193717         3.604103         0.357014
 H        -1.859539         1.447771        -1.990265
