19
Iteration:  3427charge 0 multiplicity 1
 O        -0.546091         0.165889         0.392809
 C        -1.800456         0.888441         0.154037
 C        -3.250400         0.311223        -0.113337
 C        -3.372377         1.800481        -0.154631
 C        -2.424021         1.849017         1.224684
 C        -1.769552         3.195131         1.525822
 C        -0.771749         3.559677         0.328833
 O        -1.355269         3.144176        -0.940679
 C        -2.067993         1.958888        -0.968868
 H        -0.295320         0.328940         1.287900
 H        -3.226982        -0.232503        -1.025646
 H        -3.787912        -0.136686         0.699113
 H        -4.341374         2.326683        -0.182528
 H        -2.904455         1.239000         2.001874
 H        -2.571823         4.016605         1.637232
 H        -1.094335         3.193076         2.378741
 H        -0.509003         4.665374         0.336298
 H         0.120084         2.869895         0.453622
 H        -2.083974         1.739997        -2.081331
