19
Iteration:  2933
 O        -0.633044         0.000421         0.462628
 C        -1.740417         0.830661         0.154721
 C        -3.177978         0.286675        -0.118039
 C        -3.262432         1.899525        -0.043230
 C        -2.350357         1.877972         1.181076
 C        -1.703312         3.195385         1.485545
 C        -0.866053         3.670477         0.305610
 O        -1.448213         3.162004        -0.983920
 C        -2.126741         1.950960        -0.994327
 H        -0.305467         0.282082         1.325925
 H        -3.546192        -0.071018        -1.127343
 H        -3.577093        -0.380722         0.628881
 H        -4.091972         2.668188        -0.201170
 H        -2.786470         1.455976         2.112330
 H        -2.618458         3.935619         1.589856
 H        -1.008719         3.265956         2.321993
 H        -0.745045         4.764054         0.403744
 H         0.157076         3.140501         0.350391
 H        -2.049021         1.520183        -2.021119
