19
Iteration:  2806
 O        -0.544515         0.232321         0.522796
 C        -1.688726         0.889742         0.207913
 C        -3.257149         0.307936        -0.113313
 C        -3.354583         1.792226        -0.077321
 C        -2.402580         1.858996         1.165504
 C        -1.729279         3.213271         1.510672
 C        -0.842264         3.498221         0.263326
 O        -1.388181         3.175869        -0.956025
 C        -2.104570         1.988802        -1.006074
 H        -0.656960        -0.659495         0.283864
 H        -3.249000         0.181139        -1.233525
 H        -3.894746        -0.395751         0.479152
 H        -4.425132         2.250883        -0.209241
 H        -2.895119         1.473895         2.102431
 H        -2.542371         3.852094         1.778979
 H        -1.067866         3.114487         2.451527
 H        -0.228367         4.501648         0.119316
 H         0.079267         2.743479         0.458074
 H        -2.239661         1.553213        -1.998876
