19
Iteration:   124
 O        -0.657720         0.227652         0.752874
 C        -1.759218         0.886161         0.219077
 C        -3.178833         0.371993        -0.045172
 C        -3.409941         1.960480        -0.061336
 C        -2.428316         1.942979         1.195000
 C        -1.477852         3.044356         1.481323
 C        -0.996461         3.612911         0.089233
 O        -1.282200         3.007430        -1.200711
 C        -2.116998         1.901248        -0.928560
 H        -0.601950        -0.653594         0.444686
 H        -3.395378        -0.250982        -0.935289
 H        -3.605489        -0.045352         0.810800
 H        -4.371683         2.591413        -0.451121
 H        -2.877391         1.661012         2.092152
 H        -1.952494         3.776631         2.117131
 H        -0.730679         2.568884         2.048197
 H        -1.475355         4.551895         0.133511
 H         0.153482         3.679061         0.168115
 H        -2.285736         1.447572        -1.951010
