19
Iteration:  3323charge 0 multiplicity 1
 O        -0.595156         0.171574         0.539844
 C        -1.770719         0.849420         0.230303
 C        -3.216960         0.359605        -0.159737
 C        -3.370770         1.823361         0.048802
 C        -2.430571         1.773720         1.219052
 C        -1.726702         3.151085         1.389534
 C        -0.866721         3.581906         0.250050
 O        -1.329030         3.173496        -0.974909
 C        -2.051654         1.946574        -0.978993
 H         0.052259         0.286344        -0.230075
 H        -3.380590        -0.090107        -1.140116
 H        -3.880061        -0.141357         0.570279
 H        -4.164015         2.600159        -0.270890
 H        -2.857758         1.246850         2.061097
 H        -2.396213         3.980566         1.636383
 H        -1.053875         2.926829         2.282414
 H        -0.754816         4.653865         0.273565
 H         0.171916         3.215803         0.507435
 H        -2.337128         1.695518        -2.004855
