19
Iteration:  3012
 O        -0.542457         0.276993         0.336146
 C        -1.793348         0.868383         0.192641
 C        -3.291464         0.235004        -0.069588
 C        -3.398934         1.873522         0.009883
 C        -2.467338         1.855469         1.178562
 C        -1.783113         3.151349         1.444798
 C        -0.739635         3.452915         0.284198
 O        -1.317780         3.173251        -1.013714
 C        -2.040146         1.940029        -0.899524
 H        -0.251316         0.430495         1.246219
 H        -3.240821        -0.361115        -0.968399
 H        -3.612163        -0.297550         0.808225
 H        -4.280721         2.515182        -0.155832
 H        -2.902555         1.325532         2.081403
 H        -2.600076         3.974613         1.557425
 H        -1.184786         3.331832         2.368341
 H        -0.535916         4.555125         0.455238
 H         0.216919         2.824888         0.374839
 H        -2.272087         1.704866        -1.924483
