19
Iteration:  3601charge 0 multiplicity 1
 O        -0.546670         0.331667         0.377084
 C        -1.825137         0.977162         0.207641
 C        -3.127273         0.248601        -0.195655
 C        -3.414831         1.874135        -0.078893
 C        -2.490801         1.799784         1.216429
 C        -1.773123         3.201952         1.508752
 C        -0.732513         3.385593         0.367910
 O        -1.245085         3.118460        -0.988855
 C        -2.183810         1.951956        -0.956664
 H        -0.494867         0.260830         1.380180
 H        -3.274733        -0.151262        -1.271387
 H        -3.581338        -0.407995         0.603996
 H        -4.404816         2.365595        -0.088441
 H        -2.971649         1.267674         2.041066
 H        -2.526419         4.015342         1.598158
 H        -1.404852         3.005444         2.553161
 H        -0.451793         4.466432         0.165792
 H         0.164271         2.893203         0.696619
 H        -2.405044         1.545559        -2.029172
