19
Iteration:   596
 O        -0.598246         0.163821         0.339850
 C        -1.794804         0.808943         0.343790
 C        -3.380475         0.313029        -0.099712
 C        -3.379150         1.824189         0.051297
 C        -2.410557         2.011611         1.267842
 C        -1.747584         3.371693         1.385620
 C        -0.882841         3.696674         0.136240
 O        -1.077383         2.829919        -0.962864
 C        -2.109834         1.848990        -0.804828
 H        -0.128568         0.533317        -0.468700
 H        -3.447734        -0.104192        -1.118601
 H        -4.013161        -0.257607         0.647252
 H        -4.307028         2.374956        -0.293794
 H        -2.918130         1.825354         2.229931
 H        -2.534107         4.119217         1.702124
 H        -1.051830         3.245416         2.226598
 H        -0.973459         4.623964        -0.260145
 H         0.188012         3.487227         0.402521
 H        -2.128680         1.462830        -1.749833
