19
Iteration:  3227
 O        -0.614527         0.058660         0.338190
 C        -1.755486         0.941020         0.149905
 C        -3.123546         0.311107        -0.129472
 C        -3.399419         1.801610         0.050592
 C        -2.492315         1.912103         1.258858
 C        -1.780904         3.271539         1.382123
 C        -0.768496         3.497126         0.277782
 O        -1.324077         3.146246        -0.996442
 C        -2.151228         1.952813        -0.863599
 H        -0.097898         0.486185         1.117633
 H        -3.111572        -0.055477        -1.175132
 H        -3.329472        -0.479132         0.554509
 H        -4.271386         2.486331         0.153465
 H        -2.621722         1.354246         2.255209
 H        -2.540890         4.065548         1.433094
 H        -1.262119         3.320667         2.406056
 H        -0.407911         4.521144         0.278501
 H         0.096282         2.937670         0.614203
 H        -2.380301         1.559327        -1.925049
