19
Iteration:  1888
 O        -0.589012         0.362186         0.443490
 C        -1.798758         0.930971         0.183293
 C        -3.292070         0.203012        -0.096115
 C        -3.370148         1.849761        -0.022813
 C        -2.447125         1.903347         1.167668
 C        -1.643765         3.196207         1.466776
 C        -0.734960         3.458471         0.258237
 O        -1.401402         3.105484        -1.010566
 C        -2.069586         1.883705        -0.957543
 H        -0.508134        -0.071910         1.301716
 H        -3.551899        -0.367294        -1.052173
 H        -3.579310        -0.502389         0.755504
 H        -4.209596         2.501935        -0.156713
 H        -2.784637         1.627039         2.198957
 H        -2.373371         4.009719         1.700671
 H        -0.958480         3.028553         2.385920
 H        -0.482431         4.554979         0.041902
 H         0.179119         2.889176         0.486702
 H        -2.205973         1.475918        -1.887651
