19
Iteration:  3755
 O        -0.517562         0.269009         0.366110
 C        -1.834389         0.927232         0.218503
 C        -3.152651         0.263757        -0.042710
 C        -3.475048         1.786348        -0.148878
 C        -2.586174         1.990867         1.088430
 C        -1.774455         3.237342         1.485639
 C        -0.678413         3.414726         0.380261
 O        -1.302174         3.110797        -0.908524
 C        -2.085835         1.872253        -0.878713
 H        -0.055994         0.874907        -0.179793
 H        -3.191230        -0.376273        -0.948079
 H        -3.655383        -0.110604         0.897917
 H        -4.449684         2.229260        -0.513984
 H        -3.051770         1.521484         1.964944
 H        -2.412198         4.012077         1.728101
 H        -1.282756         2.856543         2.384154
 H        -0.336721         4.437770         0.398578
 H         0.110303         2.721846         0.391077
 H        -2.111231         1.574411        -1.967237
