19
Iteration:  2174
 O        -0.550500         0.262919         0.250501
 C        -1.813670         0.855817         0.220186
 C        -3.259521         0.249728         0.012004
 C        -3.437233         1.853295         0.028287
 C        -2.458307         1.913550         1.202149
 C        -1.830598         3.276739         1.395473
 C        -0.803652         3.559291         0.305235
 O        -1.210757         3.065330        -0.947850
 C        -2.000268         1.901527        -0.969139
 H        -0.600868        -0.538438         0.907123
 H        -3.384532        -0.382194        -0.887726
 H        -3.613064        -0.263057         0.910450
 H        -4.284543         2.532856        -0.041227
 H        -2.796945         1.455675         2.129157
 H        -2.626890         3.980892         1.422914
 H        -1.301767         3.209488         2.366625
 H        -0.624041         4.647320         0.172028
 H         0.225721         3.073484         0.503807
 H        -2.163956         1.444589        -1.960421
