19
Iteration:  1504charge 0 multiplicity 1
 O        -0.562239         0.238457         0.378098
 C        -1.767700         0.824580         0.176593
 C        -3.203060         0.308987        -0.025739
 C        -3.363167         1.817949        -0.014558
 C        -2.471639         1.929726         1.251964
 C        -1.853222         3.290020         1.370136
 C        -0.691010         3.412998         0.309983
 O        -1.318846         3.183430        -0.997928
 C        -2.084629         1.929605        -0.908211
 H        -0.795570        -0.675278         0.520565
 H        -3.480733        -0.144094        -0.987540
 H        -3.704471        -0.126624         0.851837
 H        -4.288334         2.311759        -0.280258
 H        -2.774084         1.489269         2.195529
 H        -2.590220         4.102648         1.284403
 H        -1.312503         3.310787         2.414504
 H        -0.190530         4.389559         0.013381
 H         0.000891         2.618998         0.611387
 H        -2.144971         1.542133        -1.926098
