19
Iteration:  2192charge 0 multiplicity 1
 O        -0.538230         0.166211         0.242133
 C        -1.710576         0.769237         0.178201
 C        -3.222678         0.316509        -0.004740
 C        -3.355637         1.823760        -0.096886
 C        -2.467059         1.946700         1.251340
 C        -1.785140         3.312852         1.504051
 C        -0.835827         3.641664         0.301311
 O        -1.270489         3.005055        -0.951979
 C        -2.093892         1.907734        -0.901868
 H        -0.583928        -0.427550         1.078936
 H        -3.595521         0.003171        -0.983239
 H        -3.717165        -0.036981         0.897841
 H        -4.289906         2.249589        -0.428677
 H        -3.034057         1.664509         2.190115
 H        -2.588564         4.167242         1.577086
 H        -1.210684         3.301048         2.411990
 H        -0.727142         4.748797         0.164946
 H         0.119019         3.137485         0.356330
 H        -2.367730         1.552148        -1.987677
