19
Iteration:  1861
 O        -0.602784         0.069141         0.376026
 C        -1.725711         0.874499         0.229704
 C        -3.235262         0.320465        -0.019762
 C        -3.339574         1.850171        -0.026683
 C        -2.429587         1.889514         1.239380
 C        -1.737727         3.208253         1.399707
 C        -0.808967         3.602489         0.253737
 O        -1.303806         3.128627        -1.038262
 C        -2.115419         1.964705        -0.927257
 H        -0.313190        -0.107861         1.263715
 H        -3.534310        -0.141465        -0.922860
 H        -3.584345        -0.254166         0.793065
 H        -4.362269         2.206523        -0.384513
 H        -2.687558         1.606576         2.238793
 H        -2.607640         3.919360         1.405662
 H        -1.265334         3.338360         2.318322
 H        -0.728375         4.636647         0.158403
 H         0.194274         3.291628         0.611272
 H        -2.489529         1.542795        -1.975853
