19
Iteration:  4542
 O        -0.574324         0.114000         0.367832
 C        -1.785819         0.858256         0.173228
 C        -3.201179         0.259247        -0.134983
 C        -3.296096         1.836369        -0.299330
 C        -2.560642         1.908753         1.086905
 C        -1.785890         3.074316         1.590232
 C        -0.809017         3.603427         0.413703
 O        -1.419889         3.266415        -0.752735
 C        -1.969907         1.946475        -0.943137
 H         0.327169         0.640030         0.421794
 H        -3.107245        -0.235070        -1.128169
 H        -3.653147        -0.477394         0.535692
 H        -4.182547         2.289608        -0.686931
 H        -3.181561         1.421568         1.811693
 H        -2.422132         3.919681         1.916492
 H        -1.206958         2.774899         2.467132
 H        -0.716356         4.712849         0.337070
 H         0.273166         3.187181         0.513722
 H        -1.923536         1.566126        -1.960228
