19
Iteration:  2020
 O        -0.610827         0.047507         0.273547
 C        -1.769381         0.813386         0.174957
 C        -3.180468         0.319940        -0.012498
 C        -3.342870         1.837690        -0.059503
 C        -2.432737         1.957674         1.181366
 C        -1.748773         3.306863         1.501507
 C        -0.912685         3.720701         0.226536
 O        -1.244085         3.043417        -0.903913
 C        -2.043501         1.848457        -0.938479
 H        -0.633007        -0.528958         1.003083
 H        -3.698404        -0.339144        -0.794559
 H        -3.584530        -0.006235         0.994373
 H        -4.290223         2.386256         0.008418
 H        -3.026409         1.620172         2.135944
 H        -2.615133         3.908229         1.865469
 H        -1.032708         3.444198         2.370951
 H        -1.029873         4.825588        -0.169007
 H         0.180040         3.786757         0.442041
 H        -2.013511         1.510053        -1.963586
