19
Iteration:  3316
 O        -0.613619         0.143020         0.566821
 C        -1.802725         0.852456         0.173595
 C        -3.174980         0.349771        -0.204298
 C        -3.352362         1.861862         0.007786
 C        -2.438443         1.852286         1.228122
 C        -1.728323         3.105166         1.440427
 C        -0.844397         3.590951         0.213108
 O        -1.355472         3.126339        -0.984737
 C        -2.055785         1.981209        -0.890465
 H         0.011688         0.414238        -0.200701
 H        -3.374719        -0.034626        -1.203103
 H        -3.645944        -0.274088         0.518015
 H        -4.255476         2.389084        -0.056474
 H        -2.763488         1.211234         2.091282
 H        -2.389176         3.933684         1.789991
 H        -1.018501         3.124100         2.299928
 H        -0.898502         4.698449         0.281601
 H         0.248437         3.240337         0.210788
 H        -2.243693         1.586579        -1.952048
