19
Iteration:  3943charge 0 multiplicity 1
 O        -0.600254         0.145930         0.384098
 C        -1.775510         0.816346         0.250830
 C        -3.149916         0.324074        -0.051369
 C        -3.379882         1.881974        -0.191477
 C        -2.515025         1.960759         1.202279
 C        -1.766425         3.180753         1.553048
 C        -0.865649         3.578108         0.321611
 O        -1.312127         3.109494        -0.953859
 C        -2.035347         1.880033        -0.947476
 H         0.042696         0.232479        -0.398487
 H        -3.349153        -0.298080        -0.969622
 H        -3.468904        -0.140636         0.941954
 H        -4.166397         2.560538        -0.466498
 H        -3.154994         1.587941         2.012911
 H        -2.490721         3.972952         1.694369
 H        -1.064677         3.162283         2.416947
 H        -0.722545         4.657148         0.471321
 H         0.136618         3.044132         0.469254
 H        -1.910207         1.393643        -1.998458
