19
Iteration:  2751
 O        -0.597781         0.110296         0.445727
 C        -1.776036         0.862356         0.151319
 C        -3.141767         0.273871        -0.131669
 C        -3.402523         1.752456        -0.108767
 C        -2.493160         1.936135         1.206372
 C        -1.680088         3.282790         1.557590
 C        -0.816374         3.595726         0.306192
 O        -1.387400         3.209473        -0.990055
 C        -2.024438         1.977636        -0.920454
 H        -0.834442        -0.880100         0.430357
 H        -3.131746        -0.320900        -1.118441
 H        -3.682936        -0.372785         0.579565
 H        -4.365366         2.362382        -0.273351
 H        -2.739628         1.537945         2.189767
 H        -2.361029         4.041910         1.883893
 H        -0.996707         3.148002         2.485378
 H        -0.621316         4.689699         0.006555
 H         0.050682         2.886900         0.305337
 H        -2.137771         1.355877        -1.803161
