19
Iteration:  1657charge 0 multiplicity 1
 O        -0.626408         0.010595         0.368874
 C        -1.770195         0.794023         0.220050
 C        -3.177636         0.327494         0.001596
 C        -3.369670         1.841955        -0.086617
 C        -2.296617         1.933230         1.170722
 C        -1.824684         3.326726         1.497836
 C        -0.860658         3.701832         0.259459
 O        -1.267252         3.102421        -0.985952
 C        -2.109006         1.963311        -0.953562
 H        -0.813221        -0.893583         0.567024
 H        -3.412405        -0.271146        -0.926677
 H        -3.539408        -0.354855         0.833677
 H        -4.288999         2.324013        -0.162802
 H        -2.824351         1.475072         2.032670
 H        -2.663199         3.903551         1.557097
 H        -1.208369         3.585785         2.442930
 H        -0.674075         4.833275         0.282175
 H         0.075662         3.163527         0.511704
 H        -2.041899         1.491342        -1.879829
