19
Iteration:   266charge 0 multiplicity 1
 O        -0.635665         0.097359         0.450721
 C        -1.765023         0.904855         0.281337
 C        -3.232322         0.319545         0.107889
 C        -3.364275         1.861475        -0.079578
 C        -2.450825         1.995861         1.192132
 C        -1.711467         3.274210         1.384802
 C        -0.842105         3.525034         0.154677
 O        -1.308840         3.033669        -1.076461
 C        -2.070274         1.888614        -0.934811
 H         0.040229         0.505108         0.965429
 H        -3.400176        -0.189675        -0.903023
 H        -3.695299        -0.192335         0.949806
 H        -4.416605         2.465963        -0.242289
 H        -2.785663         1.490829         2.182385
 H        -2.328578         4.169637         1.576809
 H        -1.021997         3.252791         2.257720
 H        -0.438578         4.521766         0.167753
 H         0.018126         2.853764         0.417719
 H        -2.223069         1.510971        -1.940660
