19
Iteration:  2807charge 0 multiplicity 1
 O        -0.545871         0.235576         0.521022
 C        -1.705637         0.896053         0.207767
 C        -3.244198         0.314558        -0.118488
 C        -3.353122         1.789244        -0.068861
 C        -2.406659         1.858089         1.166429
 C        -1.726272         3.211981         1.508053
 C        -0.837525         3.494254         0.264205
 O        -1.386710         3.168358        -0.961542
 C        -2.107051         1.992108        -0.998553
 H        -0.627412        -0.640799         0.275093
 H        -3.213436         0.180205        -1.233924
 H        -3.909768        -0.389165         0.496848
 H        -4.407575         2.256691        -0.182759
 H        -2.873816         1.465389         2.061272
 H        -2.570424         3.832774         1.750187
 H        -1.089358         3.102860         2.452854
 H        -0.253246         4.461526         0.119977
 H         0.081955         2.772360         0.490251
 H        -2.243053         1.556819        -1.999684
