19
Iteration:   244charge 0 multiplicity 1
 O        -0.757762        -0.036748         0.378392
 C        -1.759011         0.873129         0.203085
 C        -3.125549         0.248721         0.139971
 C        -3.404461         1.797661         0.023874
 C        -2.414949         1.994216         1.197941
 C        -1.808226         3.436187         1.327271
 C        -0.614948         3.580642         0.204201
 O        -1.345591         3.126859        -1.022333
 C        -2.080635         1.873235        -0.971885
 H        -0.190331         0.232000         1.170738
 H        -3.328504        -0.454431        -0.736993
 H        -3.409749        -0.158676         1.103457
 H        -4.336343         2.486891        -0.313427
 H        -2.860765         1.560226         2.177754
 H        -2.623338         4.142351         1.099365
 H        -1.571503         3.648793         2.371980
 H        -0.264528         4.597003         0.057032
 H         0.285854         3.018570         0.582338
 H        -2.153898         1.558071        -2.006270
