19
Iteration:  3520
 O        -0.549379         0.046129         0.420082
 C        -1.760038         0.871977         0.155431
 C        -3.195461         0.275368        -0.168685
 C        -3.323911         1.891504        -0.051232
 C        -2.440461         1.836366         1.199833
 C        -1.771129         3.215416         1.549890
 C        -0.917660         3.639335         0.355630
 O        -1.301136         3.197911        -1.017598
 C        -2.002140         1.989223        -0.948755
 H        -1.000448        -0.754045         0.914607
 H        -3.129657        -0.241557        -1.221940
 H        -3.788174        -0.236343         0.647271
 H        -4.235229         2.497017        -0.231133
 H        -2.971503         1.385195         2.070639
 H        -2.601919         3.852658         1.587351
 H        -1.214693         3.167475         2.495942
 H        -0.937672         4.707938         0.265456
 H         0.089958         3.247837         0.543253
 H        -2.257974         1.569337        -1.916953
