19
Iteration:  4145
 O        -0.674424         0.128243         0.289840
 C        -1.729700         0.960606         0.276224
 C        -3.043150         0.349554        -0.043161
 C        -3.344500         1.768631        -0.232011
 C        -2.553685         1.923862         1.227330
 C        -1.795935         3.242879         1.565617
 C        -0.787044         3.509236         0.319343
 O        -1.337380         3.092203        -0.923770
 C        -2.057058         1.933346        -0.952384
 H         0.162936         0.471633         0.604235
 H        -3.217196        -0.196752        -1.004349
 H        -3.688358        -0.232541         0.691743
 H        -4.318245         2.261069        -0.397102
 H        -3.157737         1.508694         2.089705
 H        -2.470883         4.075962         1.700115
 H        -1.454981         2.994233         2.542766
 H        -0.448718         4.567262         0.267001
 H         0.021149         2.886523         0.413530
 H        -2.103452         1.604284        -1.995517
