19
Iteration:  1156
 O        -0.662915         0.152440         0.328491
 C        -1.859234         0.875915         0.271343
 C        -3.157264         0.250237        -0.028106
 C        -3.429720         1.877471        -0.059460
 C        -2.476486         1.968667         1.273927
 C        -1.707322         3.223638         1.391595
 C        -0.782408         3.570281         0.288672
 O        -1.211102         3.025592        -0.962520
 C        -2.078061         1.900467        -0.877745
 H        -0.223866         0.611087        -0.473875
 H        -3.032591        -0.279422        -1.009996
 H        -3.769098        -0.238640         0.756964
 H        -4.457397         2.237877        -0.241919
 H        -2.932299         1.662588         2.264642
 H        -2.398222         4.123436         1.529536
 H        -1.205119         3.443926         2.305331
 H        -0.834890         4.693921         0.072917
 H         0.156722         3.165393         0.491666
 H        -2.027823         1.448905        -1.964463
