19
Iteration:  3269
 O        -0.637376         0.037619         0.382587
 C        -1.736259         0.854231         0.193981
 C        -3.178871         0.286862         0.013120
 C        -3.377120         1.865916        -0.103822
 C        -2.486334         1.888573         1.114830
 C        -1.645382         3.130664         1.438362
 C        -0.834335         3.656231         0.300318
 O        -1.441418         3.221234        -0.940103
 C        -1.990689         1.915454        -0.915970
 H         0.224698         0.466560         0.579648
 H        -3.558727        -0.352801        -0.740721
 H        -3.583981        -0.067120         0.947288
 H        -4.283755         2.549840        -0.480538
 H        -3.193314         1.604426         1.909441
 H        -2.343740         3.918890         1.783351
 H        -1.112239         2.943656         2.464365
 H        -0.795782         4.735801         0.261065
 H         0.256893         3.136286         0.359630
 H        -1.961927         1.469808        -1.952774
