19
Iteration:  2657charge 0 multiplicity 1
 O        -0.600496         0.247133         0.329120
 C        -1.749168         0.938831         0.215425
 C        -3.159619         0.229473        -0.070402
 C        -3.349105         1.778921        -0.083244
 C        -2.483232         1.926176         1.250814
 C        -1.760027         3.230885         1.433423
 C        -0.741913         3.427810         0.394734
 O        -1.409867         3.204555        -1.017220
 C        -2.031040         1.963344        -0.931955
 H        -0.707695        -0.578213         0.714248
 H        -3.203377        -0.269440        -1.027310
 H        -3.706014        -0.297124         0.758880
 H        -4.289783         2.459028        -0.150209
 H        -3.150165         1.465888         2.078413
 H        -2.411821         4.162827         1.417458
 H        -1.327023         3.173370         2.404902
 H        -0.369820         4.426613         0.478235
 H         0.053551         2.630623         0.467720
 H        -2.026714         1.392127        -1.940377
