19
Iteration:   801
 O        -0.695129        -0.047316         0.504655
 C        -1.745292         0.777769         0.164561
 C        -3.281550         0.358997         0.062040
 C        -3.312186         1.839287         0.013455
 C        -2.305673         1.880587         1.098271
 C        -1.819817         3.309219         1.296530
 C        -0.799199         3.684407         0.273320
 O        -1.308530         3.168495        -1.010501
 C        -2.030750         1.914728        -0.847832
 H        -0.088308        -0.014285        -0.336862
 H        -3.598299        -0.098781        -0.853102
 H        -3.740697        -0.114970         0.932109
 H        -4.182800         2.531903        -0.113512
 H        -2.727286         1.503421         2.001724
 H        -2.805705         3.861563         1.270874
 H        -1.299834         3.527464         2.319484
 H        -0.607134         4.713494         0.125016
 H         0.140420         3.225922         0.620430
 H        -2.092976         1.464211        -1.888262
