19
Iteration:  1783charge 0 multiplicity 1
 O        -0.672385         0.111622         0.496074
 C        -1.719121         0.956864         0.175227
 C        -3.255183         0.288084        -0.069299
 C        -3.390607         1.786884        -0.034432
 C        -2.402088         1.889563         1.204446
 C        -1.702911         3.238594         1.423662
 C        -0.826636         3.534516         0.248095
 O        -1.307955         3.115105        -1.021742
 C        -2.103956         1.952697        -0.894179
 H         0.153926         0.437111        -0.003411
 H        -3.276436        -0.191730        -1.031691
 H        -3.589351        -0.219102         0.780801
 H        -4.343566         2.473295        -0.072626
 H        -2.737781         1.444581         2.139340
 H        -2.405355         4.118272         1.578045
 H        -1.169666         3.175991         2.356567
 H        -0.689235         4.614100         0.162518
 H         0.175691         3.105571         0.485140
 H        -2.227493         1.370088        -1.920820
