19
Iteration:  3879charge 0 multiplicity 1
 O        -0.677706         0.047400         0.456551
 C        -1.755866         0.883847         0.201377
 C        -3.232828         0.350341        -0.108277
 C        -3.320248         1.836809        -0.065134
 C        -2.413185         1.869579         1.178649
 C        -1.696779         3.135605         1.468805
 C        -1.025530         3.653567         0.256478
 O        -1.195841         3.132193        -1.000362
 C        -2.057141         1.942716        -0.956761
 H        -0.055990         0.612726         0.904423
 H        -3.346165        -0.232782        -1.044156
 H        -3.631422        -0.170999         0.757086
 H        -4.163104         2.479873        -0.009674
 H        -2.867971         1.508610         2.140146
 H        -2.432764         3.808341         1.909355
 H        -1.083338         2.941716         2.326654
 H        -1.114554         4.774029         0.162208
 H         0.135703         3.579110         0.526142
 H        -2.040389         1.474692        -1.976307
