19
Iteration:   574charge 0 multiplicity 1
 O        -0.614709         0.233036         0.402136
 C        -1.840319         0.835366         0.213107
 C        -3.309969         0.346064         0.099306
 C        -3.385396         1.954206        -0.024603
 C        -2.428382         1.925896         1.188856
 C        -1.751908         3.270937         1.430974
 C        -0.841564         3.670750         0.164543
 O        -1.099053         2.835153        -0.957319
 C        -2.091098         1.825302        -0.932824
 H        -0.186906         0.248640        -0.452305
 H        -3.573102        -0.234316        -0.795549
 H        -3.585587        -0.232054         1.038770
 H        -4.329959         2.594034        -0.139917
 H        -2.903502         1.399558         2.040199
 H        -2.693678         3.885745         1.501668
 H        -1.239503         3.365724         2.405349
 H        -1.103730         4.608677        -0.130889
 H         0.263122         3.619251         0.359601
 H        -2.031109         1.428817        -1.907401
