19
Iteration:   485
 O        -0.646664         0.197764         0.786608
 C        -1.725591         0.911665         0.252173
 C        -3.123905         0.299048        -0.001342
 C        -3.355602         1.818716        -0.090624
 C        -2.426768         1.921808         1.090854
 C        -1.618859         3.125179         1.332964
 C        -0.743492         3.402977         0.196852
 O        -1.473014         3.241917        -1.036581
 C        -2.191807         2.068509        -1.096522
 H        -0.727988        -0.703826         0.415307
 H        -3.221997        -0.393094        -0.851955
 H        -3.688652        -0.136042         0.891373
 H        -4.415121         2.254129        -0.292555
 H        -2.659546         1.496790         2.074476
 H        -2.076978         4.103713         1.585596
 H        -0.855528         2.880438         2.147262
 H        -0.428336         4.363468         0.315101
 H        -0.038217         2.596097         0.249132
 H        -2.340884         1.669461        -2.037051
