19
Iteration:    26charge 0 multiplicity 1
 O        -0.729848        -0.064802         0.446642
 C        -1.852784         0.765297         0.239767
 C        -3.382856         0.398482         0.022867
 C        -3.257357         1.962486         0.026185
 C        -2.262826         1.988274         1.171209
 C        -1.456019         3.298418         1.356744
 C        -1.424973         4.001156        -0.032483
 O        -0.921380         2.759149        -0.860233
 C        -2.022276         1.803168        -0.879094
 H        -0.297076         0.375305         1.162367
 H        -3.609671        -0.110150        -0.928320
 H        -3.937715         0.001339         0.813579
 H        -4.287504         2.644639         0.002009
 H        -2.663702         1.707013         2.070022
 H        -1.816896         3.872913         2.219937
 H        -0.443890         3.023780         1.551896
 H        -2.376819         4.295537        -0.328335
 H        -0.588000         4.753387        -0.089075
 H        -2.230742         1.421969        -2.011800
