19
Iteration:  4611
 O        -0.561370         0.202370         0.282966
 C        -1.784658         0.846774         0.127296
 C        -3.132311         0.199795        -0.261605
 C        -3.395691         1.776153        -0.146212
 C        -2.489269         1.810273         1.172453
 C        -1.907391         3.248304         1.534350
 C        -0.798060         3.458741         0.458902
 O        -1.294347         3.279200        -0.784508
 C        -1.972771         2.010501        -0.938414
 H        -0.348911         0.409818         1.178442
 H        -3.212522        -0.047662        -1.347703
 H        -3.702007        -0.577935         0.306341
 H        -4.285452         2.435306        -0.324621
 H        -2.945863         1.418392         2.074813
 H        -2.759947         3.930358         1.537312
 H        -1.443556         3.366157         2.528644
 H        -0.371172         4.454609         0.644094
 H        -0.045561         2.679992         0.770626
 H        -2.023319         1.748938        -2.004989
