19
Iteration:   283charge 0 multiplicity 1
 O        -0.576085         0.217061         0.539320
 C        -1.842612         0.870330         0.276835
 C        -3.236113         0.385839        -0.073479
 C        -3.336529         1.942364        -0.043344
 C        -2.492866         1.949434         1.236181
 C        -1.649039         3.189438         1.439142
 C        -0.749287         3.464628         0.147635
 O        -1.391499         3.018869        -1.101090
 C        -2.093453         1.791315        -0.883553
 H        -0.021449         0.970005         0.606296
 H        -3.390947        -0.287613        -0.945025
 H        -3.739649        -0.074213         0.783566
 H        -4.100373         2.561620        -0.212237
 H        -3.077774         1.698168         2.106172
 H        -2.307463         4.073998         1.673857
 H        -0.943377         3.050241         2.335742
 H        -0.865145         4.583690        -0.169822
 H         0.303202         3.109133         0.109246
 H        -2.175949         1.138791        -1.787757
