19
Iteration:  3946
 O        -0.600149         0.136112         0.400622
 C        -1.770397         0.823994         0.235158
 C        -3.159339         0.269853        -0.044806
 C        -3.365751         1.887770        -0.191975
 C        -2.456085         1.971122         1.178654
 C        -1.781416         3.209169         1.545260
 C        -0.885265         3.538670         0.329889
 O        -1.324805         3.121884        -0.946810
 C        -2.025336         1.910220        -0.958042
 H        -0.019739         0.197447        -0.416979
 H        -3.418215        -0.314903        -0.980101
 H        -3.552777        -0.138714         0.873049
 H        -4.219869         2.534218        -0.394485
 H        -3.176124         1.648049         2.002492
 H        -2.474266         4.052318         1.766741
 H        -1.098779         3.215170         2.368104
 H        -0.676323         4.663030         0.487699
 H         0.153538         2.974762         0.592136
 H        -1.992446         1.434244        -1.983054
