19
Iteration:  2449
 O        -0.567817         0.345477         0.449822
 C        -1.813278         0.918830         0.254502
 C        -3.172608         0.294243        -0.182021
 C        -3.403870         1.797336        -0.052345
 C        -2.492184         1.890874         1.183890
 C        -1.685707         3.133016         1.503718
 C        -0.711660         3.461091         0.265470
 O        -1.399031         3.133383        -1.017797
 C        -2.077391         1.954447        -0.909884
 H        -0.623007        -0.656106         0.673222
 H        -3.290685        -0.154070        -1.176514
 H        -3.607718        -0.255872         0.711782
 H        -4.459119         2.376570         0.049087
 H        -2.827773         1.400565         2.121114
 H        -2.391046         4.013466         1.803522
 H        -1.073950         2.923114         2.440007
 H        -0.714792         4.498690         0.045328
 H         0.340889         3.015433         0.314514
 H        -2.198203         1.515990        -1.953510
