19
Iteration:  1201
 O        -0.632271         0.244531         0.653042
 C        -1.827300         0.800096         0.247532
 C        -3.248701         0.380046        -0.064841
 C        -3.336545         1.931229        -0.095936
 C        -2.403239         1.756839         1.091360
 C        -1.617335         3.105120         1.489842
 C        -0.825573         3.611451         0.217878
 O        -1.393126         3.121230        -1.058608
 C        -2.056442         1.920220        -0.963988
 H        -0.218339        -0.155888        -0.182296
 H        -3.325645        -0.241765        -0.989886
 H        -3.811595         0.034589         0.855542
 H        -4.119932         2.716693        -0.143982
 H        -2.724573         1.274004         2.063343
 H        -2.358931         3.782509         2.048548
 H        -0.878519         2.821746         2.259908
 H        -1.084164         4.715689         0.085727
 H         0.201479         3.362465         0.200304
 H        -2.091055         1.505670        -2.060734
