19
Iteration:  1440charge 0 multiplicity 1
 O        -0.530126         0.087484         0.505261
 C        -1.749889         0.835123         0.270645
 C        -3.324028         0.378097        -0.079589
 C        -3.361420         1.986735        -0.093880
 C        -2.432937         1.890228         1.225960
 C        -1.693140         3.150291         1.442592
 C        -0.857007         3.627857         0.227982
 O        -1.363249         3.085783        -1.016306
 C        -2.004197         1.855484        -0.922961
 H        -0.063470        -0.220685        -0.353663
 H        -3.537146        -0.147850        -0.989581
 H        -3.960687         0.100787         0.747615
 H        -4.255093         2.484340        -0.361170
 H        -2.889443         1.525326         2.170099
 H        -2.592429         3.798882         1.858688
 H        -1.043704         3.088638         2.335844
 H        -1.149231         4.775267         0.269427
 H         0.243036         3.553017         0.291899
 H        -1.977959         1.306093        -1.932696
