19
Iteration:  4749charge 0 multiplicity 1
 O        -0.508032         0.143286         0.438165
 C        -1.751323         0.883378         0.094771
 C        -3.099213         0.264037        -0.308625
 C        -3.378182         1.825596        -0.310673
 C        -2.629811         1.901860         1.102129
 C        -1.889859         3.109597         1.630184
 C        -0.759259         3.519037         0.547536
 O        -1.415465         3.289634        -0.745535
 C        -1.918154         1.962476        -0.901970
 H        -0.108305         0.036702        -0.523638
 H        -3.156566        -0.233906        -1.282970
 H        -3.698769        -0.315282         0.399146
 H        -4.403949         2.202966        -0.499620
 H        -3.104010         1.334528         1.969734
 H        -2.654765         3.876546         1.865483
 H        -1.337717         3.006034         2.584736
 H        -0.415902         4.574412         0.476165
 H         0.095196         2.887108         0.418464
 H        -1.925288         1.845543        -2.013552
