19
Iteration:  1757
 O        -0.527842         0.377051         0.547865
 C        -1.801194         0.846051         0.236469
 C        -3.251074         0.304383        -0.107597
 C        -3.362506         1.820916        -0.092425
 C        -2.475839         1.918270         1.220366
 C        -1.645770         3.149792         1.430467
 C        -0.749273         3.407738         0.241629
 O        -1.398450         3.130418        -1.016621
 C        -2.141987         1.916367        -0.886868
 H        -0.287493        -0.051328        -0.374490
 H        -3.394209         0.015904        -1.209927
 H        -3.822825        -0.283783         0.710049
 H        -4.238949         2.375413        -0.441414
 H        -2.983202         1.651612         2.173613
 H        -2.257246         3.962338         1.648106
 H        -1.103055         2.903188         2.456250
 H        -0.397271         4.540925         0.141639
 H         0.106026         2.725482         0.401965
 H        -2.265545         1.412507        -1.798518
