19
Iteration:  1581charge 0 multiplicity 1
 O        -0.584882         0.256997         0.482100
 C        -1.775112         0.817832         0.168506
 C        -3.261287         0.367923        -0.118008
 C        -3.401063         1.906614        -0.034337
 C        -2.447220         1.842648         1.135197
 C        -1.632433         3.101311         1.437605
 C        -0.866381         3.614809         0.274915
 O        -1.316916         3.040192        -1.018077
 C        -2.049995         1.927021        -0.911644
 H        -0.594105         0.097974         1.495031
 H        -3.556267        -0.176123        -1.037580
 H        -3.695170        -0.119754         0.795037
 H        -4.323003         2.366657        -0.230347
 H        -2.838408         1.327425         2.023175
 H        -2.292681         3.817254         1.835931
 H        -0.726230         3.015771         2.245078
 H        -0.830608         4.766484         0.167481
 H         0.200693         3.408245         0.436158
 H        -2.307090         1.528504        -1.885525
