19
Iteration:  4554charge 0 multiplicity 1
 O        -0.584938         0.138506         0.468655
 C        -1.713894         0.887403         0.153986
 C        -3.152705         0.289635        -0.240527
 C        -3.397626         1.762324        -0.243966
 C        -2.534965         1.871903         1.108262
 C        -1.773576         3.119858         1.637911
 C        -0.842648         3.572798         0.480503
 O        -1.401719         3.257997        -0.883256
 C        -1.952300         1.937333        -0.962817
 H        -0.042453         0.482157        -0.254688
 H        -3.397982        -0.175190        -1.220595
 H        -3.764218        -0.077827         0.604934
 H        -4.264627         2.369658        -0.449809
 H        -2.982017         1.363300         1.952210
 H        -2.516954         3.847251         1.984208
 H        -1.158083         2.805525         2.485912
 H        -0.648288         4.661005         0.534184
 H         0.159342         3.011682         0.532304
 H        -1.784425         1.799782        -2.025850
