19
Iteration:  3896
 O        -0.659872         0.146510         0.523469
 C        -1.807292         0.880412         0.112081
 C        -3.196368         0.295651        -0.142258
 C        -3.404749         1.901921        -0.052499
 C        -2.429279         1.797885         1.172515
 C        -1.697295         3.130554         1.541622
 C        -0.818467         3.762573         0.274751
 O        -1.235842         2.989681        -0.976452
 C        -2.078158         1.939119        -0.948732
 H         0.066972         0.749865         0.556126
 H        -3.396569        -0.073429        -1.137861
 H        -3.718045        -0.267259         0.699391
 H        -4.405082         2.367645        -0.331784
 H        -2.769941         1.172387         1.974638
 H        -2.461065         3.916649         1.677897
 H        -0.991410         3.048300         2.439674
 H        -1.242536         4.714338         0.091255
 H         0.226932         3.788264         0.432447
 H        -2.391141         1.622675        -1.937235
