19
Iteration:  1866
 O        -0.568991         0.120571         0.406766
 C        -1.772821         0.864626         0.187799
 C        -3.207728         0.377191        -0.009927
 C        -3.395477         1.843157        -0.036326
 C        -2.423521         1.855428         1.206996
 C        -1.737184         3.182805         1.391269
 C        -0.798681         3.593957         0.236992
 O        -1.291877         3.135198        -1.007002
 C        -2.136015         1.923875        -0.925419
 H        -0.366395        -0.104303         1.346987
 H        -3.495541        -0.173349        -0.973549
 H        -3.727196        -0.240263         0.812965
 H        -4.390120         2.177552        -0.199388
 H        -2.701272         1.495557         2.250663
 H        -2.495058         3.999205         1.352360
 H        -1.142768         3.278929         2.384700
 H        -0.692872         4.745354         0.157102
 H         0.207737         3.147408         0.435452
 H        -2.357029         1.614527        -1.884330
