19
Iteration:  4737
 O        -0.612060         0.109699         0.393068
 C        -1.705672         0.908583         0.182985
 C        -3.072834         0.310229        -0.271084
 C        -3.338943         1.769922        -0.260371
 C        -2.622894         1.861229         1.032635
 C        -1.836258         3.103699         1.566653
 C        -0.809140         3.530504         0.494882
 O        -1.430026         3.302581        -0.697993
 C        -1.970544         2.005561        -0.963448
 H         0.141762         0.441205        -0.084102
 H        -3.113689        -0.163734        -1.248841
 H        -3.415808        -0.290333         0.555925
 H        -4.154034         2.383364        -0.655402
 H        -3.176361         1.261960         1.840839
 H        -2.472272         3.959809         1.859983
 H        -1.388168         2.594822         2.442851
 H        -0.479202         4.584620         0.614581
 H         0.075761         2.932546         0.807500
 H        -1.674026         1.555038        -1.930937
