19
Iteration:  3204
 O        -0.619484         0.166500         0.314331
 C        -1.812871         0.882951         0.238456
 C        -3.127553         0.257443        -0.069989
 C        -3.416473         1.746236        -0.018521
 C        -2.463564         1.839728         1.221554
 C        -1.732506         3.243266         1.406925
 C        -0.725714         3.481156         0.280056
 O        -1.299518         3.183095        -0.977674
 C        -2.153820         2.026315        -0.900037
 H        -0.034064         0.620255         0.883641
 H        -3.335875        -0.221960        -1.029196
 H        -3.619078        -0.165681         0.781368
 H        -4.479533         2.279892         0.058983
 H        -2.948876         1.454613         2.200508
 H        -2.622602         3.860481         1.206375
 H        -1.300790         3.679783         2.385127
 H        -0.250142         4.435636         0.419220
 H         0.150312         2.807407         0.485978
 H        -2.260952         1.654416        -1.983046
