19
Iteration:  2018charge 0 multiplicity 1
 O        -0.618237         0.046828         0.267529
 C        -1.777598         0.806065         0.178756
 C        -3.167960         0.324377        -0.010079
 C        -3.328300         1.838924        -0.054947
 C        -2.438898         1.966307         1.166527
 C        -1.747135         3.311309         1.493658
 C        -0.915042         3.720212         0.237946
 O        -1.254929         3.032242        -0.898138
 C        -2.040635         1.846543        -0.927353
 H        -0.642700        -0.549008         0.994087
 H        -3.639788        -0.291670        -0.797792
 H        -3.550665         0.021342         0.993175
 H        -4.255641         2.362706         0.009682
 H        -2.942593         1.661995         2.144414
 H        -2.650428         3.923979         1.849986
 H        -1.069222         3.426393         2.332737
 H        -1.056038         4.827353        -0.142925
 H         0.204230         3.775021         0.455378
 H        -2.028086         1.529405        -2.068370
