19
Iteration:  2088charge 0 multiplicity 1
 O        -0.598644         0.259861         0.469351
 C        -1.811749         0.858500         0.251328
 C        -3.180698         0.267483        -0.042314
 C        -3.383625         1.799526        -0.066706
 C        -2.444031         1.917429         1.114634
 C        -1.628440         3.150203         1.443581
 C        -0.790562         3.559739         0.257871
 O        -1.399735         3.190109        -1.012861
 C        -2.096378         1.896832        -0.983578
 H        -0.630529        -0.346874         1.250164
 H        -3.361290        -0.184654        -1.050980
 H        -3.742955        -0.224596         0.798650
 H        -4.445973         2.126719        -0.164981
 H        -2.979976         1.681047         2.021604
 H        -2.120161         3.987227         1.853696
 H        -0.941877         2.808515         2.307332
 H        -0.573668         4.625219         0.317281
 H         0.188114         3.088599         0.262046
 H        -1.989384         1.576657        -1.899888
