19
Iteration:  1580
 O        -0.590435         0.258614         0.485053
 C        -1.777461         0.820988         0.172255
 C        -3.255435         0.369895        -0.109742
 C        -3.397741         1.901201        -0.037143
 C        -2.443707         1.845277         1.133265
 C        -1.638687         3.091092         1.432459
 C        -0.858280         3.619654         0.284940
 O        -1.315775         3.040720        -1.025333
 C        -2.059819         1.932504        -0.914434
 H        -0.596556         0.099241         1.491927
 H        -3.527147        -0.199788        -1.041699
 H        -3.704362        -0.091840         0.822934
 H        -4.363758         2.349648        -0.239841
 H        -2.800164         1.301253         2.028399
 H        -2.292097         3.791572         1.815447
 H        -0.743715         3.004006         2.228968
 H        -0.829589         4.757184         0.197241
 H         0.222891         3.387926         0.405349
 H        -2.286493         1.569940        -1.907572
