19
Iteration:    34charge 0 multiplicity 1
 O        -0.772340        -0.077011         0.441648
 C        -1.837294         0.774325         0.227881
 C        -3.383760         0.432656         0.046542
 C        -3.285961         1.926767         0.027884
 C        -2.265495         1.990118         1.196860
 C        -1.455269         3.295229         1.345327
 C        -1.401375         3.866893        -0.078740
 O        -0.958147         2.847665        -0.816705
 C        -1.947893         1.824650        -0.887833
 H        -0.059649         0.372832         0.894861
 H        -3.679953        -0.026688        -0.915398
 H        -3.948147         0.063698         0.885658
 H        -4.154280         2.572148        -0.024654
 H        -2.695976         1.638830         2.143899
 H        -1.907673         3.970008         2.078876
 H        -0.423845         3.092050         1.668020
 H        -2.397320         4.119200        -0.421018
 H        -0.698641         4.727721        -0.227877
 H        -2.006044         1.515434        -1.906757
