19
Iteration:   809
 O        -0.646994        -0.072018         0.547742
 C        -1.753445         0.803004         0.203232
 C        -3.308711         0.340199         0.035113
 C        -3.278311         1.857399        -0.019877
 C        -2.329072         1.918665         1.178376
 C        -1.771553         3.281997         1.353890
 C        -0.800244         3.673086         0.240741
 O        -1.346574         3.177505        -1.006851
 C        -2.046988         1.896811        -0.982206
 H        -0.071578        -0.111160        -0.285547
 H        -3.490809        -0.063443        -0.984889
 H        -3.734071        -0.087654         0.965465
 H        -4.223567         2.412627        -0.177465
 H        -2.927019         1.489680         2.075190
 H        -2.671826         4.009624         1.381105
 H        -1.419422         3.396681         2.356236
 H        -0.564627         4.810539         0.273377
 H         0.210921         3.246735         0.429103
 H        -2.344005         1.671905        -2.087917
