19
Iteration:  4728
 O        -0.653987         0.099409         0.377483
 C        -1.759630         0.933830         0.153480
 C        -3.037134         0.254828        -0.266439
 C        -3.319637         1.797791        -0.319581
 C        -2.528557         1.854346         1.135473
 C        -1.827883         3.069306         1.555270
 C        -0.851604         3.475047         0.581187
 O        -1.427554         3.329584        -0.812094
 C        -1.942059         2.017915        -0.923785
 H         0.114634         0.664346         0.395423
 H        -3.048177        -0.302702        -1.216254
 H        -3.618715        -0.315203         0.480457
 H        -4.246050         2.381859        -0.529462
 H        -3.216965         1.468051         1.915546
 H        -2.407150         3.942900         1.886679
 H        -1.302377         2.763885         2.502185
 H        -0.725344         4.565855         0.538421
 H         0.113167         3.026735         0.713722
 H        -1.762627         1.830972        -2.014812
