19
Iteration:  3941
 O        -0.595179         0.149787         0.372332
 C        -1.779988         0.824710         0.254342
 C        -3.150348         0.356761        -0.054237
 C        -3.379524         1.873797        -0.186271
 C        -2.558144         1.947244         1.215176
 C        -1.752581         3.164721         1.552298
 C        -0.846883         3.599549         0.322462
 O        -1.303983         3.103501        -0.960331
 C        -2.038999         1.856749        -0.939177
 H         0.014184         0.266258        -0.326277
 H        -3.288596        -0.270906        -0.927070
 H        -3.446355        -0.140587         0.935694
 H        -4.171628         2.573490        -0.515853
 H        -3.124226         1.528612         2.025326
 H        -2.517343         3.938665         1.658759
 H        -1.060882         3.105598         2.453957
 H        -0.752924         4.648534         0.400383
 H         0.085158         3.131357         0.383801
 H        -1.872524         1.407605        -1.948984
