19
Iteration:  4834
 O        -0.527677         0.098739         0.221349
 C        -1.739615         0.922755         0.144940
 C        -3.122367         0.290643        -0.293798
 C        -3.306958         1.833856        -0.316895
 C        -2.622569         1.866676         1.175646
 C        -1.912940         3.081839         1.607605
 C        -0.839895         3.536770         0.568127
 O        -1.379814         3.282463        -0.731181
 C        -1.909018         1.908014        -0.917732
 H        -0.022644         0.544714         0.857876
 H        -3.298931        -0.107788        -1.289383
 H        -3.557541        -0.254701         0.550497
 H        -4.127914         2.554755        -0.488625
 H        -3.236757         1.234370         1.840691
 H        -2.642294         3.913532         1.515440
 H        -1.418574         3.171006         2.598269
 H        -0.823559         4.616376         0.824118
 H         0.172274         3.015720         0.810361
 H        -1.679804         1.650588        -1.976403
