19
Iteration:  2576
 O        -0.559262         0.111029         0.350926
 C        -1.787570         0.831725         0.211283
 C        -3.249460         0.321774        -0.049231
 C        -3.411272         1.831785        -0.070785
 C        -2.480652         1.955518         1.175559
 C        -1.692777         3.132416         1.502449
 C        -0.887634         3.612774         0.294727
 O        -1.314125         3.187179        -0.972901
 C        -2.000746         1.880502        -0.946167
 H        -0.178519        -0.002815         1.218226
 H        -3.408797        -0.176038        -1.130127
 H        -3.747624        -0.266746         0.753720
 H        -4.203281         2.415836        -0.413379
 H        -2.908472         1.506452         2.110077
 H        -2.343285         4.019347         1.683816
 H        -1.004039         2.835368         2.416956
 H        -0.999871         4.738472         0.301850
 H         0.225346         3.533840         0.329587
 H        -1.932296         1.551546        -2.034518
