19
Iteration:  2562charge 0 multiplicity 1
 O        -0.582573         0.138725         0.330379
 C        -1.774391         0.815201         0.131523
 C        -3.255906         0.287965        -0.059266
 C        -3.282989         1.891041        -0.115260
 C        -2.435640         1.875773         1.182286
 C        -1.708547         3.254275         1.539305
 C        -0.879231         3.682433         0.327258
 O        -1.351805         3.075259        -0.945567
 C        -2.024652         1.882125        -0.972272
 H        -0.632328         0.068406         1.312564
 H        -3.541427        -0.245117        -0.997631
 H        -3.658315        -0.204777         0.846490
 H        -4.199390         2.450632        -0.137038
 H        -2.972152         1.401506         1.968548
 H        -2.526525         3.871345         1.972908
 H        -0.940448         3.119576         2.409332
 H        -0.820726         4.797080         0.079638
 H         0.120847         3.288758         0.619614
 H        -2.134809         1.487187        -1.941891
