19
Iteration:   676charge 0 multiplicity 1
 O        -0.748257        -0.024172         0.584510
 C        -1.745852         0.869434         0.404545
 C        -3.112106         0.277913        -0.061600
 C        -3.382023         1.892168        -0.102690
 C        -2.441595         1.894602         1.222732
 C        -1.575873         3.272497         1.326681
 C        -0.755923         3.540339         0.065019
 O        -1.534872         3.227826        -1.002185
 C        -2.044202         1.939956        -0.924709
 H        -0.090280         0.352721         1.240590
 H        -2.995348        -0.209995        -1.096671
 H        -3.710410        -0.438025         0.511935
 H        -4.156051         2.587444        -0.309017
 H        -3.002983         1.554146         2.170563
 H        -2.340865         4.200675         1.475568
 H        -0.944368         3.241953         2.237211
 H        -0.315712         4.598260        -0.029879
 H         0.078709         2.839649         0.048083
 H        -1.912034         1.494445        -2.016551
