19
Iteration:   421charge 0 multiplicity 1
 O        -0.571594         0.138233         0.400298
 C        -1.809745         0.884269         0.229553
 C        -3.244894         0.323088         0.059511
 C        -3.362513         1.866985        -0.016629
 C        -2.491486         1.974925         1.204406
 C        -1.804425         3.354616         1.389131
 C        -0.791035         3.540928         0.318642
 O        -1.200886         2.953118        -1.071524
 C        -2.086353         1.856978        -0.908421
 H        -0.004099         0.290111        -0.445020
 H        -3.573438        -0.277260        -0.764430
 H        -3.758831        -0.069755         0.992276
 H        -4.293575         2.518148        -0.353194
 H        -2.823902         1.510686         2.219862
 H        -2.570701         4.179984         1.329467
 H        -1.340239         3.356951         2.424077
 H        -0.646072         4.540752         0.104713
 H         0.118972         3.076395         0.562864
 H        -2.253353         1.508957        -1.939620
