19
Iteration:  3183charge 0 multiplicity 1
 O        -0.561569         0.171097         0.334929
 C        -1.770003         0.888661         0.156286
 C        -3.226698         0.270178        -0.008814
 C        -3.393397         1.878569        -0.008623
 C        -2.429376         1.937082         1.140326
 C        -1.803333         3.258219         1.473943
 C        -0.751255         3.412944         0.325353
 O        -1.430905         3.130760        -0.924936
 C        -2.028532         1.897903        -0.968605
 H         0.214923         0.797837         0.610492
 H        -3.480389        -0.221926        -1.000829
 H        -3.652293        -0.218595         0.867237
 H        -4.267083         2.447747        -0.505211
 H        -2.778092         1.456447         2.157246
 H        -2.434266         4.137119         1.641804
 H        -1.204405         3.089195         2.438975
 H        -0.393733         4.455262         0.291801
 H         0.192176         2.886794         0.402746
 H        -2.088556         1.540791        -2.080543
