19
Iteration:  4582
 O        -0.563532         0.280216         0.479712
 C        -1.715531         0.894872         0.145929
 C        -3.045097         0.280921        -0.314155
 C        -3.374237         1.834669        -0.070725
 C        -2.517312         1.737652         1.162015
 C        -1.879846         3.061742         1.527873
 C        -0.796095         3.494054         0.378239
 O        -1.298923         3.222325        -0.895071
 C        -2.068925         2.055610        -0.917197
 H        -0.835616        -0.608113         0.366868
 H        -3.213883         0.152020        -1.378190
 H        -3.744243        -0.279225         0.296891
 H        -4.234993         2.500779        -0.220062
 H        -2.960862         1.220895         2.092065
 H        -2.772195         3.737117         1.587762
 H        -1.426364         3.118337         2.551374
 H        -0.687251         4.556776         0.567806
 H         0.092862         2.962693         0.584627
 H        -2.239159         2.016867        -2.039629
