19
Iteration:   374charge 0 multiplicity 1
 O        -0.587943        -0.025449         0.379248
 C        -1.770359         0.833929         0.245133
 C        -3.232726         0.347609         0.005673
 C        -3.305521         1.827002         0.004639
 C        -2.415759         2.048414         1.301412
 C        -1.793707         3.386459         1.293407
 C        -0.739636         3.519216         0.185008
 O        -1.359957         3.143650        -0.991294
 C        -2.091359         1.837688        -0.895227
 H        -0.484227        -0.122406         1.349070
 H        -3.229486        -0.131212        -1.046285
 H        -3.789683        -0.376181         0.613448
 H        -4.227583         2.385819        -0.281717
 H        -3.026253         1.638430         2.193466
 H        -2.625964         4.130056         1.087670
 H        -1.306150         3.611340         2.339514
 H        -0.590317         4.623248         0.157303
 H         0.155618         2.906599         0.317355
 H        -2.113065         1.560621        -1.915894
