19
Iteration:  1261charge 0 multiplicity 1
 O        -0.647817         0.095877         0.511710
 C        -1.747030         0.841060         0.201360
 C        -3.181773         0.316649        -0.047674
 C        -3.336121         1.846308        -0.031099
 C        -2.413766         1.925452         1.202948
 C        -1.703046         3.246695         1.399042
 C        -0.835911         3.494099         0.240011
 O        -1.471228         3.244384        -0.998068
 C        -1.950572         1.937493        -0.956728
 H        -0.938525        -0.880169         0.457442
 H        -3.429507        -0.282372        -0.925468
 H        -3.587655        -0.204874         0.808401
 H        -4.165204         2.477743        -0.366292
 H        -2.785621         1.392354         2.065308
 H        -2.328977         4.139495         1.409745
 H        -1.004486         3.214308         2.306462
 H        -0.582736         4.524327         0.211890
 H         0.202314         3.031859         0.344986
 H        -2.055046         1.583364        -1.918479
