19
Iteration:   482charge 0 multiplicity 1
 O        -0.630323         0.211460         0.776758
 C        -1.760622         0.910522         0.242848
 C        -3.114051         0.303621         0.019793
 C        -3.388593         1.829936        -0.094494
 C        -2.419577         1.912970         1.118211
 C        -1.625572         3.144489         1.320474
 C        -0.739983         3.400756         0.195684
 O        -1.448016         3.223556        -1.028735
 C        -2.191294         2.064587        -1.109665
 H        -0.730476        -0.723471         0.403611
 H        -3.216807        -0.366249        -0.890366
 H        -3.664772        -0.126237         0.862282
 H        -4.372470         2.215254        -0.248936
 H        -2.677238         1.413639         2.060759
 H        -2.094210         4.063353         1.657119
 H        -0.928592         2.792965         2.121001
 H        -0.482241         4.573738         0.328949
 H         0.027740         2.479737         0.272747
 H        -2.330859         1.656287        -2.139930
