19
Iteration:  1461
 O        -0.601073         0.242184         0.373436
 C        -1.830228         0.860987         0.224668
 C        -3.288295         0.311871        -0.043440
 C        -3.327129         1.831404        -0.052093
 C        -2.454196         1.901008         1.218645
 C        -1.742494         3.271015         1.483126
 C        -0.826710         3.641323         0.218865
 O        -1.206886         3.003036        -0.976538
 C        -2.049914         1.860217        -0.884136
 H        -0.557703        -0.560700        -0.096263
 H        -3.409123        -0.031821        -1.057013
 H        -3.721668        -0.222508         0.790282
 H        -4.196257         2.455589        -0.255818
 H        -2.981249         1.387304         2.022178
 H        -2.535348         4.079486         1.799703
 H        -1.107137         3.052020         2.423046
 H        -0.849205         4.814728         0.245322
 H         0.210023         3.255375         0.375074
 H        -2.286231         1.440271        -1.879464
