19
Iteration:   673charge 0 multiplicity 1
 O        -0.747451        -0.039723         0.584762
 C        -1.742472         0.864772         0.381051
 C        -3.132272         0.271971        -0.048203
 C        -3.337566         1.869645        -0.128095
 C        -2.434763         1.917474         1.226417
 C        -1.595019         3.275597         1.327996
 C        -0.772687         3.560370         0.070579
 O        -1.528498         3.238015        -0.990122
 C        -2.037729         1.923468        -0.916163
 H        -0.165395         0.353652         1.200210
 H        -3.140014        -0.102629        -1.110824
 H        -3.708161        -0.410252         0.601329
 H        -4.181297         2.551131        -0.307383
 H        -2.980253         1.575517         2.123372
 H        -2.237806         4.128363         1.446501
 H        -0.972862         3.274803         2.207572
 H        -0.387689         4.509215        -0.028306
 H         0.208799         2.911425        -0.028599
 H        -1.998979         1.558191        -1.872154
