19
Iteration:  2208charge 0 multiplicity 1
 O        -0.537324         0.044218         0.266997
 C        -1.822387         0.928297         0.274433
 C        -3.211568         0.295889        -0.050052
 C        -3.360592         1.887872        -0.058011
 C        -2.447668         1.956755         1.204799
 C        -1.749281         3.278636         1.488784
 C        -0.862199         3.601037         0.277469
 O        -1.343234         3.098711        -0.976703
 C        -2.034989         1.858635        -0.946045
 H        -0.449689        -0.425072         1.133906
 H        -3.030566        -0.299829        -0.958963
 H        -3.702386        -0.215485         0.803398
 H        -4.268676         2.545826        -0.081248
 H        -2.848097         1.427609         2.042092
 H        -2.481238         3.993285         1.608811
 H        -1.149001         3.291881         2.447642
 H        -0.915103         4.659767         0.070122
 H         0.160228         3.328787         0.579305
 H        -1.957834         1.445942        -1.892605
