19
Iteration:  3102
 O        -0.609899         0.155207         0.507153
 C        -1.715103         0.832225         0.180228
 C        -3.257900         0.375095        -0.098348
 C        -3.262570         1.893712        -0.017253
 C        -2.344288         1.820644         1.198344
 C        -1.746755         3.189799         1.497838
 C        -0.924739         3.589368         0.264309
 O        -1.396228         3.169239        -1.026023
 C        -2.028559         1.908996        -0.981144
 H        -0.339116        -0.615878        -0.091152
 H        -3.430277        -0.050266        -1.021768
 H        -3.610120        -0.256903         0.705498
 H        -4.205432         2.386916        -0.060057
 H        -2.936955         1.501332         2.045508
 H        -2.526528         3.972020         1.760861
 H        -1.096404         3.057443         2.432351
 H        -0.734825         4.684378         0.282288
 H        -0.048714         2.967282         0.393378
 H        -2.208494         1.575930        -1.967179
