19
Iteration:  3589charge 0 multiplicity 1
 O        -0.524031         0.332649         0.370096
 C        -1.759318         0.935772         0.122230
 C        -3.227740         0.276681        -0.138702
 C        -3.462471         1.829109        -0.078892
 C        -2.464159         1.871300         1.182494
 C        -1.840947         3.183805         1.464098
 C        -0.791050         3.345299         0.378215
 O        -1.283139         3.075881        -0.901946
 C        -2.083048         2.025849        -0.956833
 H        -0.176926         0.408164         1.293428
 H        -3.170488        -0.339573        -1.145265
 H        -3.639946        -0.311771         0.707684
 H        -4.214398         2.580081        -0.091747
 H        -2.690251         1.296805         2.085684
 H        -2.546788         3.998804         1.448939
 H        -1.193257         3.299161         2.392723
 H        -0.305348         4.351208         0.471066
 H        -0.066759         2.565008         0.455370
 H        -2.134268         1.732039        -2.081749
