19
Iteration:  4523
 O        -0.623772         0.141468         0.319220
 C        -1.777942         0.863314         0.170121
 C        -3.057262         0.250851        -0.245046
 C        -3.379888         1.797422        -0.225431
 C        -2.550427         1.912351         1.164241
 C        -1.787371         3.113856         1.566442
 C        -0.824839         3.583032         0.466659
 O        -1.390297         3.253769        -0.881837
 C        -1.950945         1.952259        -0.883599
 H        -0.211326         0.151277         1.279197
 H        -3.298567        -0.410589        -1.105000
 H        -3.715365        -0.199459         0.549798
 H        -4.250285         2.447797        -0.350890
 H        -3.138026         1.337140         1.935214
 H        -2.499591         3.888499         1.821052
 H        -1.087511         2.977071         2.420394
 H        -0.625883         4.657740         0.474245
 H         0.169260         3.150595         0.458072
 H        -1.772478         1.728076        -1.943458
