19
Iteration:  3186charge 0 multiplicity 1
 O        -0.566954         0.178559         0.332383
 C        -1.763914         0.889677         0.144297
 C        -3.241746         0.257537        -0.012438
 C        -3.404582         1.885344        -0.017033
 C        -2.416871         1.916995         1.176487
 C        -1.818376         3.265439         1.446277
 C        -0.741369         3.417666         0.341252
 O        -1.406613         3.158458        -0.929190
 C        -2.045333         1.888704        -0.947133
 H         0.104357         0.767821         0.648329
 H        -3.425313        -0.298992        -1.022340
 H        -3.614548        -0.315645         0.888663
 H        -4.216403         2.423398        -0.401630
 H        -2.745940         1.432331         2.120382
 H        -2.383092         4.189606         1.569098
 H        -1.277499         3.030798         2.323820
 H        -0.377033         4.473415         0.173870
 H         0.182789         2.819617         0.382988
 H        -2.086457         1.554674        -2.011779
