19
Iteration:  4195charge 0 multiplicity 1
 O        -0.597249         0.263034         0.575446
 C        -1.785694         0.871543         0.147223
 C        -3.189184         0.374086        -0.224870
 C        -3.384247         1.877002        -0.106032
 C        -2.344161         1.806380         1.165321
 C        -1.750220         3.198038         1.457421
 C        -0.804400         3.510150         0.364484
 O        -1.387337         3.109349        -0.937747
 C        -2.095200         1.936728        -0.911725
 H        -0.192982        -0.238688        -0.152272
 H        -3.187655        -0.225030        -1.145805
 H        -3.652054        -0.287875         0.481819
 H        -4.383723         2.339867        -0.202983
 H        -2.703190         1.213980         2.005972
 H        -2.566411         3.976888         1.410534
 H        -1.358950         3.183383         2.530131
 H        -0.692606         4.609101         0.466176
 H         0.148267         2.812948         0.372894
 H        -2.017335         1.504698        -1.958966
