19
Iteration:   577
 O        -0.600091         0.234373         0.389373
 C        -1.861703         0.822542         0.210468
 C        -3.301323         0.343726         0.082972
 C        -3.389025         1.950903        -0.034121
 C        -2.452003         1.926566         1.213433
 C        -1.726372         3.300590         1.405376
 C        -0.828010         3.678368         0.176062
 O        -1.114275         2.804813        -0.944292
 C        -2.076143         1.814061        -0.907709
 H        -0.189348         0.286016        -0.478940
 H        -3.540950        -0.217299        -0.844422
 H        -3.710180        -0.194813         0.935910
 H        -4.234342         2.576837        -0.097233
 H        -2.838766         1.343561         2.097695
 H        -2.672063         3.958345         1.483860
 H        -1.238284         3.423255         2.384950
 H        -1.130251         4.775781        -0.041927
 H         0.184064         3.725094         0.414882
 H        -2.171754         1.369577        -2.024308
