19
Iteration:   708
 O        -0.655587         0.189612         0.627350
 C        -1.742910         0.906802         0.175892
 C        -3.184713         0.292241         0.022399
 C        -3.423759         1.813630        -0.024341
 C        -2.499786         1.917365         1.166671
 C        -1.611508         3.229689         1.380680
 C        -0.739874         3.386041         0.140661
 O        -1.388171         3.149968        -1.002035
 C        -2.131722         1.979175        -1.025545
 H         0.072808         0.667902         0.958019
 H        -3.420231        -0.172761        -1.002105
 H        -3.578826        -0.355342         0.825159
 H        -4.253219         2.416040        -0.286321
 H        -2.961470         1.430938         2.107944
 H        -2.294050         4.174168         1.537552
 H        -0.960910         3.108644         2.238439
 H        -0.298465         4.433439         0.095619
 H         0.066257         2.618514         0.291214
 H        -2.263683         1.672121        -2.101227
