19
Iteration:  4034charge 0 multiplicity 1
 O        -0.564808         0.329744         0.407317
 C        -1.764325         0.878403         0.208947
 C        -3.174868         0.285536        -0.020606
 C        -3.331337         1.839424        -0.222719
 C        -2.512368         1.900906         1.122215
 C        -1.738145         3.109112         1.487694
 C        -0.777161         3.502608         0.351504
 O        -1.421340         3.181676        -0.858476
 C        -2.016691         1.849706        -0.995464
 H        -0.608639        -0.658685         0.638345
 H        -3.377761        -0.331599        -0.955810
 H        -3.813587         0.013203         0.812726
 H        -4.139728         2.570149        -0.404828
 H        -3.113319         1.511170         1.996024
 H        -2.355277         3.924635         1.891541
 H        -1.123909         2.695418         2.241796
 H        -0.698872         4.619164         0.205707
 H         0.275701         3.076746         0.406736
 H        -2.081758         1.743401        -2.087925
