19
Iteration:  3345
 O        -0.521873         0.215502         0.436229
 C        -1.814999         0.854834         0.160437
 C        -3.262588         0.290877        -0.068643
 C        -3.365354         1.815586        -0.103639
 C        -2.412230         1.901559         1.174699
 C        -1.799739         3.218608         1.532852
 C        -0.783501         3.541030         0.310980
 O        -1.345088         3.139317        -0.966521
 C        -2.026995         1.941957        -0.935252
 H        -0.317930        -0.179483        -0.406534
 H        -3.658953        -0.333849        -0.894192
 H        -3.633549        -0.161115         0.898400
 H        -4.367372         2.429560        -0.254208
 H        -2.888053         1.239712         1.862370
 H        -2.500867         4.055054         1.544185
 H        -1.336160         3.229984         2.596060
 H        -0.530800         4.556878         0.465428
 H         0.174701         2.983014         0.440237
 H        -2.076611         1.461241        -1.917941
