19
Iteration:  1233charge 0 multiplicity 1
 O        -0.641417         0.069032         0.600824
 C        -1.792891         0.843393         0.317385
 C        -3.105947         0.291358        -0.147696
 C        -3.485742         1.767485        -0.119623
 C        -2.475091         1.957151         1.171938
 C        -1.530587         3.234742         1.504466
 C        -0.764583         3.605859         0.200023
 O        -1.443690         3.198587        -1.021688
 C        -2.078642         1.998188        -0.957359
 H        -0.983356        -0.757917         0.219909
 H        -3.033920        -0.294261        -1.097399
 H        -3.731315        -0.343721         0.560600
 H        -4.451319         2.277610        -0.339052
 H        -2.868305         1.460091         2.149035
 H        -2.005607         4.180764         1.979853
 H        -0.794985         2.891003         2.201800
 H        -0.762649         4.772580         0.019265
 H         0.266420         3.376323         0.192775
 H        -2.071405         1.509204        -2.070936
