19
Iteration:  2042
 O        -0.589806         0.152376         0.337210
 C        -1.825510         0.849220         0.273281
 C        -3.277571         0.347340        -0.029443
 C        -3.325064         1.828973        -0.043393
 C        -2.450029         1.881550         1.200200
 C        -1.714153         3.175012         1.437348
 C        -0.925079         3.690007         0.282605
 O        -1.237858         3.069622        -1.082561
 C        -2.018778         1.871774        -0.885420
 H        -0.517697        -0.400962         1.208737
 H        -3.323836        -0.176367        -1.048533
 H        -3.805979        -0.138383         0.832206
 H        -4.185043         2.471377        -0.243930
 H        -2.461867         1.596670         2.283509
 H        -2.494698         3.842871         1.869382
 H        -0.983678         3.132622         2.300028
 H        -1.109453         4.832361         0.109064
 H         0.177997         3.687628         0.412476
 H        -2.211687         1.595058        -1.926620
