19
Iteration:  1140charge 0 multiplicity 1
 O        -0.648114         0.100931         0.279320
 C        -1.791452         0.914868         0.243912
 C        -3.193996         0.305938         0.007807
 C        -3.372886         1.786907        -0.046016
 C        -2.482136         1.943435         1.243402
 C        -1.827578         3.368479         1.412390
 C        -0.725265         3.526013         0.297832
 O        -1.229640         3.034714        -0.985205
 C        -2.102480         1.923421        -0.862633
 H         0.169706         0.368292        -0.177777
 H        -3.435823        -0.180970        -0.922471
 H        -3.491375        -0.253325         0.885432
 H        -4.253941         2.459937        -0.110181
 H        -2.914230         1.389418         2.086923
 H        -2.613469         4.140890         1.300789
 H        -1.519061         3.437922         2.520974
 H        -0.458510         4.533244         0.146587
 H         0.221510         2.885031         0.563009
 H        -2.306961         1.541454        -1.856438
