19
Iteration:  4686charge 0 multiplicity 1
 O        -0.517237         0.198249         0.450993
 C        -1.729993         0.860119         0.112188
 C        -3.164992         0.348835        -0.443425
 C        -3.350507         1.847814        -0.058551
 C        -2.499607         1.794378         1.131937
 C        -1.811957         3.039880         1.481471
 C        -0.938808         3.587219         0.457890
 O        -1.298605         3.217943        -0.800833
 C        -1.993515         2.035948        -0.909765
 H        -0.943255        -0.551308         1.096027
 H        -3.104529        -0.074383        -1.486861
 H        -3.706603        -0.436633         0.172824
 H        -4.343212         2.329795        -0.247398
 H        -2.666007         1.201208         2.007930
 H        -2.696225         3.753563         1.478522
 H        -1.440920         3.156104         2.522161
 H        -0.831608         4.634499         0.826886
 H         0.136428         3.173227         0.682854
 H        -2.065382         1.719628        -2.012389
