19
Iteration:  2298charge 0 multiplicity 1
 O        -0.514543         0.354485         0.341210
 C        -1.802068         0.887756         0.279840
 C        -3.156428         0.302417        -0.034439
 C        -3.397628         1.832603        -0.118483
 C        -2.535792         1.971975         1.158545
 C        -1.720451         3.157094         1.434868
 C        -0.735301         3.452578         0.294650
 O        -1.378154         3.146023        -0.947043
 C        -2.117144         1.874104        -0.911326
 H        -0.650377        -0.569759         0.775215
 H        -3.248891        -0.369102        -0.914535
 H        -3.729014        -0.323800         0.710846
 H        -4.477323         2.152534        -0.384456
 H        -2.965094         1.673866         2.118240
 H        -2.292788         3.945841         1.805369
 H        -1.058531         2.889511         2.347045
 H        -0.121617         4.354598         0.309498
 H         0.020805         2.658300         0.308150
 H        -2.211297         1.580306        -1.926431
