19
Iteration:  1734charge 0 multiplicity 1
 O        -0.490631         0.416553         0.534951
 C        -1.859586         0.934010         0.155634
 C        -3.224987         0.261249         0.002150
 C        -3.539987         1.825480        -0.092615
 C        -2.544448         1.892007         1.168035
 C        -1.660574         3.128925         1.468540
 C        -0.650308         3.369765         0.235291
 O        -1.418014         3.176342        -0.951875
 C        -1.991433         1.918053        -1.056726
 H        -0.660440        -0.426629         0.129388
 H        -3.430672        -0.359049        -0.941710
 H        -3.579308        -0.162465         1.028092
 H        -4.430286         2.365214        -0.153377
 H        -2.956270         1.365190         2.067094
 H        -2.215769         4.029132         1.649492
 H        -1.047291         2.914986         2.473436
 H        -0.224127         4.476342         0.267081
 H         0.144520         2.605326         0.276565
 H        -2.003754         1.493699        -1.984319
