19
Iteration:  1713charge 0 multiplicity 1
 O        -0.604796         0.334808         0.485647
 C        -1.759546         0.925915         0.180413
 C        -3.150456         0.240266        -0.032773
 C        -3.386161         1.791093        -0.115224
 C        -2.435231         1.966186         1.103097
 C        -1.697418         3.218038         1.441629
 C        -0.712456         3.372584         0.308634
 O        -1.395416         3.135821        -0.945691
 C        -2.207283         1.957310        -0.968282
 H        -0.651639        -0.709622         0.513780
 H        -3.245605        -0.384917        -0.969805
 H        -3.610929        -0.093266         0.966270
 H        -4.308211         2.287661        -0.281474
 H        -2.862464         1.421783         1.966810
 H        -2.207240         4.091695         1.613105
 H        -0.943506         3.112423         2.358879
 H        -0.296967         4.480109         0.501767
 H         0.118556         2.636324         0.357149
 H        -2.404879         1.709411        -1.973374
