19
Iteration:  1987
 O        -0.597908         0.051073         0.266064
 C        -1.759434         0.836698         0.303500
 C        -3.214227         0.315087        -0.048228
 C        -3.344622         1.823340        -0.024209
 C        -2.425860         1.884973         1.297705
 C        -1.823664         3.333715         1.481665
 C        -0.854173         3.676302         0.187751
 O        -1.258699         3.124817        -1.053807
 C        -2.005448         1.887529        -0.896232
 H        -0.799995        -0.745646         0.866729
 H        -3.431019        -0.204524        -1.059826
 H        -3.613883        -0.045363         0.949351
 H        -4.276719         2.415083         0.019660
 H        -2.882206         1.505210         2.298350
 H        -2.768655         3.932545         1.488406
 H        -1.103310         3.487210         2.379831
 H        -0.945661         4.832673         0.106811
 H         0.068222         3.169931         0.525866
 H        -1.999248         1.471977        -1.901620
