19
Iteration:  1594
 O        -0.518405         0.204850         0.428447
 C        -1.822182         0.853208         0.196213
 C        -3.347347         0.321577        -0.175243
 C        -3.345376         1.888065        -0.047249
 C        -2.456057         1.888550         1.253052
 C        -1.630125         3.198331         1.538178
 C        -0.895768         3.638486         0.194370
 O        -1.305508         3.041008        -0.990499
 C        -2.041529         1.821955        -0.918766
 H        -0.518185         0.007388         1.333594
 H        -3.511915         0.064366        -1.209022
 H        -3.776081        -0.352994         0.549675
 H        -4.039077         2.659760        -0.146444
 H        -2.994467         1.551429         2.135119
 H        -2.303541         4.022685         1.930574
 H        -0.905346         2.868248         2.395831
 H        -1.105172         4.749688        -0.005220
 H         0.164236         3.382709         0.217556
 H        -1.959696         1.512446        -1.995759
