19
Iteration:  4349charge 0 multiplicity 1
 O        -0.626284         0.125073         0.413891
 C        -1.729976         0.868230         0.180761
 C        -3.123409         0.222424        -0.064654
 C        -3.336190         1.852595        -0.201435
 C        -2.528069         1.943813         1.169415
 C        -1.799106         3.133580         1.513248
 C        -0.842757         3.462677         0.386048
 O        -1.417590         3.300029        -0.916250
 C        -1.944816         1.959286        -0.931283
 H         0.068694         0.179798        -0.198302
 H        -3.268259        -0.317491        -1.009360
 H        -3.578339        -0.301121         0.786101
 H        -4.026103         2.662893        -0.405635
 H        -3.115138         1.473564         2.010971
 H        -2.662721         3.778074         1.760567
 H        -1.222919         3.154977         2.484943
 H        -0.614295         4.531523         0.360097
 H         0.055414         2.833114         0.345117
 H        -1.883160         1.621951        -2.013690
