19
Iteration:  3796charge 0 multiplicity 1
 O        -0.597283         0.102254         0.516811
 C        -1.749217         0.803817         0.214376
 C        -3.138028         0.354738        -0.113878
 C        -3.398639         1.892383        -0.043357
 C        -2.433137         1.862176         1.199558
 C        -1.848133         3.187335         1.393282
 C        -0.814909         3.464614         0.267448
 O        -1.314607         3.193361        -0.979687
 C        -2.103660         2.012573        -0.938997
 H         0.136862         0.664324         0.171890
 H        -3.267015        -0.047386        -1.167112
 H        -3.634867        -0.327383         0.569458
 H        -4.378146         2.404951        -0.207895
 H        -2.584156         1.316633         2.159008
 H        -2.647650         4.069180         1.410034
 H        -1.315582         3.179900         2.400010
 H        -0.459023         4.534860         0.230511
 H         0.057255         2.758676         0.691505
 H        -2.087946         1.509908        -1.885503
