19
Iteration:  1890charge 0 multiplicity 1
 O        -0.588757         0.378661         0.441728
 C        -1.803037         0.934332         0.185365
 C        -3.286785         0.208706        -0.093387
 C        -3.356811         1.839264        -0.038621
 C        -2.450685         1.914057         1.186008
 C        -1.641544         3.188279         1.472885
 C        -0.739602         3.453785         0.262581
 O        -1.397630         3.115836        -1.009765
 C        -2.083931         1.858343        -0.953314
 H        -0.466499        -0.122170         1.330190
 H        -3.563249        -0.324593        -1.092041
 H        -3.578981        -0.490889         0.746426
 H        -4.287822         2.488148        -0.251374
 H        -2.785837         1.631664         2.201797
 H        -2.299006         4.018799         1.669982
 H        -0.937553         3.005574         2.404229
 H        -0.459600         4.563800         0.034503
 H         0.164081         2.808121         0.422653
 H        -2.252875         1.483534        -1.938588
