19
Iteration:  1889
 O        -0.589511         0.370721         0.442522
 C        -1.800713         0.933534         0.183871
 C        -3.289819         0.205581        -0.094893
 C        -3.362680         1.844800        -0.030247
 C        -2.448953         1.908357         1.176104
 C        -1.643114         3.192417         1.469675
 C        -0.737247         3.455487         0.260686
 O        -1.399733         3.110642        -1.010318
 C        -2.076438         1.870620        -0.956523
 H        -0.484171        -0.100180         1.321032
 H        -3.561418        -0.352283        -1.077104
 H        -3.579086        -0.503504         0.753676
 H        -4.249277         2.497294        -0.203304
 H        -2.783261         1.633569         2.204175
 H        -2.336861         4.013430         1.685026
 H        -0.941939         3.015611         2.401928
 H        -0.470274         4.567299         0.034285
 H         0.172054         2.848417         0.458662
 H        -2.228649         1.483628        -1.901389
