19
Iteration:   297
 O        -0.614601         0.313763         0.617654
 C        -1.848678         0.863315         0.341787
 C        -3.323705         0.311316        -0.052185
 C        -3.406478         1.858484        -0.102797
 C        -2.463162         1.948204         1.215884
 C        -1.503019         3.141431         1.410058
 C        -0.792889         3.499100         0.123755
 O        -1.369172         3.015772        -1.075599
 C        -2.066250         1.844400        -0.934929
 H         0.096307         0.920766         0.235011
 H        -3.420021        -0.076634        -1.169117
 H        -3.945435        -0.239995         0.670667
 H        -4.393699         2.393928        -0.300998
 H        -2.923557         1.504639         2.208459
 H        -2.173339         4.051919         1.648212
 H        -0.768587         3.012114         2.349073
 H        -0.649290         4.645560         0.143057
 H         0.226275         3.159121         0.179799
 H        -2.059574         1.481096        -1.946267
