19
Iteration:  1127
 O        -0.600773         0.030731         0.318045
 C        -1.731583         0.834603         0.115536
 C        -3.211118         0.325459         0.028302
 C        -3.413178         1.912878         0.086501
 C        -2.442639         1.974508         1.204927
 C        -1.904269         3.357685         1.374173
 C        -0.776766         3.475750         0.346176
 O        -1.285328         3.083110        -0.967549
 C        -2.034922         1.897018        -0.959483
 H         0.052097         0.723535         0.033090
 H        -3.349562        -0.315419        -0.853642
 H        -3.744050        -0.130848         0.898095
 H        -4.440761         2.333431        -0.093021
 H        -2.632669         1.608193         2.215755
 H        -2.661232         4.140666         1.179558
 H        -1.276312         3.499609         2.388685
 H        -0.224191         4.416491         0.192610
 H         0.089575         2.721267         0.727504
 H        -2.059936         1.565715        -1.948422
