19
Iteration:  1237charge 0 multiplicity 1
 O        -0.665010         0.060879         0.580492
 C        -1.768384         0.870868         0.328696
 C        -3.083681         0.271276        -0.135528
 C        -3.466133         1.788193        -0.139130
 C        -2.441117         1.956474         1.172592
 C        -1.578398         3.226165         1.518688
 C        -0.740403         3.661630         0.177745
 O        -1.460611         3.192713        -1.012907
 C        -2.116628         1.972003        -0.950480
 H        -0.983817        -0.839338         0.257887
 H        -3.011673        -0.306550        -1.081670
 H        -3.760853        -0.329288         0.501399
 H        -4.423820         2.289484        -0.239014
 H        -2.990727         1.474597         1.980872
 H        -2.035740         4.118848         1.847714
 H        -0.771033         2.815884         2.294253
 H        -0.567895         4.692526         0.013489
 H         0.359017         3.290555         0.262978
 H        -2.068448         1.510479        -1.879809
