19
Iteration:   410charge 0 multiplicity 1
 O        -0.701599         0.095824         0.380331
 C        -1.768744         0.879390         0.160892
 C        -3.229768         0.299094         0.117547
 C        -3.386538         1.818691         0.026238
 C        -2.438890         2.009001         1.247000
 C        -1.882494         3.345527         1.331440
 C        -0.779564         3.521196         0.287173
 O        -1.153320         3.022710        -1.024137
 C        -2.041548         1.872488        -0.991983
 H         0.102698         0.536013        -0.007718
 H        -3.471328        -0.209809        -0.797713
 H        -3.505113        -0.218017         1.089630
 H        -4.416644         2.412412        -0.138998
 H        -2.695237         1.540176         2.282174
 H        -2.615090         4.194989         1.382010
 H        -1.252938         3.483900         2.253108
 H        -0.627438         4.528337         0.127657
 H         0.129807         3.145835         0.665529
 H        -2.234951         1.461728        -1.993508
