19
Iteration:  4463
 O        -0.572820         0.159176         0.369542
 C        -1.794710         0.937286         0.203420
 C        -3.186088         0.206541        -0.235868
 C        -3.409445         1.758446        -0.182154
 C        -2.497856         1.858760         1.208559
 C        -1.844702         3.181488         1.463485
 C        -0.760668         3.523711         0.514792
 O        -1.335596         3.243614        -0.870071
 C        -1.995739         1.974541        -0.951674
 H         0.190504         0.425780        -0.173956
 H        -3.192979        -0.319490        -1.179999
 H        -3.732499        -0.174114         0.612688
 H        -4.302419         2.437045        -0.256340
 H        -2.901566         1.409820         2.108831
 H        -2.565318         4.037364         1.471085
 H        -1.283622         3.317261         2.391254
 H        -0.492818         4.587989         0.662807
 H         0.087803         2.787298         0.760789
 H        -2.000994         1.484322        -1.929585
