19
Iteration:  1587charge 0 multiplicity 1
 O        -0.543801         0.235122         0.465538
 C        -1.792144         0.830890         0.151516
 C        -3.298537         0.347949        -0.151985
 C        -3.383062         1.906507        -0.029738
 C        -2.456068         1.838323         1.174035
 C        -1.595054         3.163352         1.498401
 C        -0.905891         3.610350         0.199439
 O        -1.307885         3.054799        -0.977223
 C        -2.021701         1.871355        -0.902315
 H        -0.560636         0.077203         1.418820
 H        -3.679962        -0.045546        -1.122453
 H        -3.685415        -0.311774         0.634643
 H        -4.277885         2.647247        -0.185033
 H        -3.045094         1.503890         2.074071
 H        -2.299452         3.967020         1.940857
 H        -0.912526         2.994059         2.234821
 H        -0.956024         4.642997        -0.000778
 H         0.161223         3.410103         0.485901
 H        -2.276559         1.375016        -1.868523
