19
Iteration:   626charge 0 multiplicity 1
 O        -0.746050         0.042329         0.445142
 C        -1.758170         0.862343         0.242320
 C        -3.203737         0.345965         0.044785
 C        -3.325570         1.879465        -0.001136
 C        -2.408241         1.962218         1.233648
 C        -1.719939         3.259600         1.386172
 C        -0.904689         3.634631         0.190010
 O        -1.194799         2.972949        -1.070865
 C        -2.074355         1.912141        -0.934612
 H         0.086861         0.565119         0.297020
 H        -3.398038        -0.392482        -0.716722
 H        -3.695505         0.069027         1.002550
 H        -4.288093         2.366884        -0.357602
 H        -2.889256         1.621481         2.129485
 H        -2.473089         3.948433         1.588814
 H        -1.143209         3.215242         2.317153
 H        -1.041778         4.728478         0.023478
 H         0.225610         3.570704         0.420572
 H        -2.188752         1.499323        -1.925626
