19
Iteration:   971
 O        -0.677346        -0.101700         0.361003
 C        -1.790897         0.835286         0.262365
 C        -3.237367         0.338524         0.031568
 C        -3.361750         1.871051         0.010960
 C        -2.330269         1.923715         1.222672
 C        -1.776815         3.270818         1.437498
 C        -0.940554         3.705294         0.239187
 O        -1.208038         3.088352        -1.051607
 C        -1.983022         1.946934        -0.969180
 H         0.108557         0.533682         0.201725
 H        -3.650507        -0.207792        -0.875492
 H        -3.757874        -0.131577         0.899802
 H        -4.132690         2.596893        -0.118317
 H        -3.086485         1.644900         1.966667
 H        -2.728966         3.851203         1.663492
 H        -1.223724         3.482106         2.438823
 H        -0.887990         4.850274         0.113108
 H         0.085445         3.217062         0.494577
 H        -2.101915         1.389684        -1.855788
