19
Iteration:  2408charge 0 multiplicity 1
 O        -0.587262         0.114767         0.398728
 C        -1.747635         0.848761         0.196515
 C        -3.205156         0.362287        -0.004892
 C        -3.315621         1.820434        -0.079635
 C        -2.482542         1.841632         1.185412
 C        -1.735293         3.167272         1.501097
 C        -0.771145         3.655581         0.270285
 O        -1.415965         3.217991        -1.037179
 C        -2.028128         1.914659        -0.939803
 H        -0.718310        -0.450475         1.155356
 H        -3.417681        -0.244463        -0.931383
 H        -3.768538        -0.351897         0.700648
 H        -4.301954         2.314491        -0.367768
 H        -2.865789         1.237398         1.995827
 H        -2.370833         4.038532         1.659153
 H        -1.235443         2.802932         2.505464
 H        -0.758197         4.779240         0.378970
 H         0.259822         3.326926         0.226929
 H        -1.939177         1.628254        -1.958242
