19
Iteration:  2290charge 0 multiplicity 1
 O        -0.524531         0.319600         0.372567
 C        -1.831948         0.906269         0.313207
 C        -3.166252         0.266604        -0.049870
 C        -3.439637         1.810518        -0.142327
 C        -2.513739         1.940392         1.179404
 C        -1.649911         3.132115         1.484484
 C        -0.730344         3.419538         0.325504
 O        -1.411331         3.205050        -1.042148
 C        -2.108543         1.951248        -0.908796
 H        -0.601412        -0.622817         0.789581
 H        -3.116627        -0.294380        -1.099598
 H        -3.566886        -0.317765         0.864232
 H        -4.288908         2.347593        -0.507567
 H        -3.047479         1.654003         2.154712
 H        -2.393588         4.016063         1.617976
 H        -1.011241         3.050999         2.360499
 H        -0.314570         4.492011         0.307253
 H         0.119178         2.651040         0.327278
 H        -2.118630         1.250084        -1.820710
