19
Iteration:  2640charge 0 multiplicity 1
 O        -0.522259         0.221067         0.426223
 C        -1.789890         0.783130         0.199307
 C        -3.206512         0.289908        -0.089444
 C        -3.345171         1.903364        -0.073409
 C        -2.468125         1.813472         1.179676
 C        -1.769392         3.170695         1.433096
 C        -0.763361         3.467530         0.246424
 O        -1.378418         3.270266        -0.929584
 C        -2.084448         1.960069        -0.942645
 H        -0.592274        -0.345113         1.160891
 H        -3.450550        -0.299405        -1.007621
 H        -3.657188        -0.211364         0.755998
 H        -4.214716         2.390666        -0.310699
 H        -2.773414         1.412979         2.094053
 H        -2.577600         3.887898         1.546564
 H        -1.230694         3.317874         2.436911
 H        -0.473811         4.567756         0.140599
 H         0.056859         2.773842         0.477295
 H        -2.145850         1.719548        -1.976430
