19
Iteration:  1956charge 0 multiplicity 1
 O        -0.526359         0.178554         0.419470
 C        -1.773438         0.929421         0.273972
 C        -3.190610         0.297719        -0.079186
 C        -3.422840         1.806741        -0.097819
 C        -2.356367         1.919697         1.203558
 C        -1.719626         3.294802         1.429576
 C        -0.756823         3.502742         0.229773
 O        -1.413579         3.118485        -0.969796
 C        -2.148241         1.921996        -0.959502
 H        -0.904503        -0.531546         0.907867
 H        -3.437673        -0.397432        -0.964589
 H        -3.521280        -0.334915         0.789435
 H        -4.323297         2.516188        -0.084195
 H        -2.772871         1.383047         2.089319
 H        -2.497885         4.040037         1.436388
 H        -1.308178         3.307527         2.529971
 H        -0.273667         4.514745         0.311467
 H         0.068796         2.816960         0.414362
 H        -2.167956         1.588657        -1.931431
