19
Iteration:   642
 O        -0.714070        -0.063863         0.548106
 C        -1.781000         0.857753         0.207241
 C        -3.226836         0.306342         0.148592
 C        -3.374785         1.888581        -0.129515
 C        -2.355158         1.930572         1.113838
 C        -1.699492         3.282983         1.446102
 C        -0.857883         3.687480         0.206587
 O        -1.320646         3.124768        -1.054575
 C        -2.047102         1.866068        -1.022978
 H         0.112363         0.474748         0.810325
 H        -3.487667        -0.231921        -0.802917
 H        -3.564309        -0.149102         1.081051
 H        -4.192889         2.570341        -0.103666
 H        -2.772790         1.408351         2.032104
 H        -2.467580         4.124044         1.749183
 H        -0.962128         3.207837         2.263825
 H        -0.628191         4.728982        -0.050094
 H         0.112964         3.238136         0.302762
 H        -2.089967         1.532474        -2.116630
