19
Iteration:   396
 O        -0.728595         0.007365         0.352825
 C        -1.830315         0.908567         0.212500
 C        -3.134231         0.300038         0.074434
 C        -3.414356         1.818976         0.049272
 C        -2.405269         1.925849         1.159725
 C        -1.818002         3.415855         1.336042
 C        -0.759580         3.587698         0.233978
 O        -1.202358         3.034100        -1.013303
 C        -2.047654         1.923389        -0.903357
 H         0.050575         0.499157         0.726962
 H        -3.390403        -0.441864        -0.759692
 H        -3.492710        -0.206532         0.992615
 H        -4.415906         2.337943         0.033800
 H        -2.851744         1.501164         2.151865
 H        -2.721130         4.038852         1.056949
 H        -1.452599         3.651150         2.430495
 H        -0.441417         4.642969         0.018969
 H        -0.022507         2.855874         0.579614
 H        -2.049251         1.611724        -1.917552
