19
Iteration:  2606charge 0 multiplicity 1
 O        -0.662226         0.182948         0.416760
 C        -1.797513         0.802139         0.165570
 C        -3.146478         0.262692        -0.155411
 C        -3.377783         1.855491        -0.047717
 C        -2.466926         1.917457         1.254582
 C        -1.641949         3.182556         1.541816
 C        -0.859328         3.573049         0.239475
 O        -1.350590         3.176626        -0.975888
 C        -2.065230         1.927287        -0.977797
 H        -0.368895         0.130057         1.339664
 H        -3.195684        -0.127697        -1.160832
 H        -3.565472        -0.418233         0.571479
 H        -4.205325         2.418980        -0.326595
 H        -2.900020         1.409279         2.076121
 H        -2.341679         3.933710         1.870449
 H        -0.944427         2.889205         2.383730
 H        -0.694996         4.695036         0.117138
 H         0.167366         3.250990         0.469905
 H        -2.084352         1.545871        -1.942797
