19
Iteration:  3370
 O        -0.539366         0.219427         0.306984
 C        -1.788614         0.929394         0.215452
 C        -3.117834         0.217140        -0.028196
 C        -3.398087         1.813443        -0.132921
 C        -2.490134         2.030132         1.194105
 C        -1.810397         3.247608         1.435993
 C        -0.735094         3.470221         0.381792
 O        -1.356267         3.121956        -0.932158
 C        -2.116169         1.963350        -0.891173
 H        -0.746209        -0.687158        -0.092135
 H        -3.028848        -0.213938        -1.013238
 H        -3.514572        -0.482554         0.600234
 H        -4.315426         2.277399        -0.211262
 H        -3.062849         1.545784         1.972069
 H        -2.533507         4.117112         1.525160
 H        -1.268834         3.206885         2.460390
 H        -0.229879         4.426055         0.573200
 H         0.064820         2.668896         0.654588
 H        -2.153288         1.362690        -1.863818
