19
Iteration:  4308
 O        -0.623064         0.184638         0.355531
 C        -1.827730         0.924310         0.141723
 C        -3.164647         0.202484        -0.190982
 C        -3.396821         1.861735        -0.061427
 C        -2.479182         1.845467         1.237294
 C        -1.775157         3.195598         1.530424
 C        -0.836872         3.563224         0.362707
 O        -1.246834         3.157263        -0.944244
 C        -2.070836         1.916777        -0.947373
 H        -0.076708         0.803153         1.009378
 H        -3.018601        -0.133075        -1.195680
 H        -3.450752        -0.548891         0.556193
 H        -4.368893         2.284111        -0.355681
 H        -2.893548         1.438340         2.081275
 H        -2.433595         4.063423         1.712732
 H        -1.208326         3.264046         2.469784
 H        -0.539842         4.616294         0.366137
 H         0.002178         2.816667         0.601832
 H        -2.078020         1.535640        -1.995942
