19
Iteration:  2559charge 0 multiplicity 1
 O        -0.599297         0.144671         0.334521
 C        -1.743386         0.829603         0.122347
 C        -3.265844         0.283721        -0.077495
 C        -3.266547         1.889559        -0.125811
 C        -2.424113         1.880139         1.176751
 C        -1.703863         3.258949         1.551974
 C        -0.880508         3.684999         0.323019
 O        -1.352477         3.064497        -0.948178
 C        -2.040547         1.893483        -0.940843
 H        -0.640282         0.017315         1.258757
 H        -3.469887        -0.316853        -0.911601
 H        -3.705941        -0.129750         0.834954
 H        -4.285669         2.474521        -0.091133
 H        -2.895759         1.309729         2.020336
 H        -2.592332         3.792248         1.910062
 H        -1.028139         3.119914         2.345534
 H        -0.749027         4.710980         0.023718
 H         0.101276         3.319586         0.692557
 H        -2.198899         1.436341        -1.931664
