19
Iteration:  3454
 O        -0.644692         0.092508         0.390484
 C        -1.782881         0.910960         0.222390
 C        -3.150019         0.281978        -0.102222
 C        -3.344126         1.853097        -0.142707
 C        -2.584834         1.955587         1.162552
 C        -1.716254         3.074810         1.521955
 C        -0.818969         3.671787         0.316173
 O        -1.349355         3.136965        -0.968970
 C        -2.013881         1.893461        -0.902207
 H         0.168703         0.544501         0.565151
 H        -2.998171        -0.304798        -1.072402
 H        -3.696558        -0.257752         0.741843
 H        -4.276006         2.469127        -0.131229
 H        -3.114804         1.405290         1.963650
 H        -2.213085         3.899537         1.972752
 H        -0.983248         2.759139         2.278421
 H        -0.890022         4.736066         0.348967
 H         0.210831         3.365462         0.327224
 H        -1.974649         1.733815        -1.949175
