19
Iteration:  3481
 O        -0.651326         0.085197         0.526792
 C        -1.786879         0.812958         0.147288
 C        -3.219888         0.274238        -0.187825
 C        -3.365894         1.841173        -0.162412
 C        -2.422431         1.929127         1.208784
 C        -1.656919         3.128919         1.557971
 C        -0.942335         3.701861         0.344920
 O        -1.308720         3.173933        -1.001844
 C        -2.015456         1.909242        -0.891768
 H        -0.062376        -0.139889        -0.185931
 H        -3.313694        -0.167412        -1.139591
 H        -3.676605        -0.299396         0.579365
 H        -4.278907         2.398696        -0.303950
 H        -2.884885         1.441071         2.062733
 H        -2.355576         3.945546         1.956657
 H        -0.895815         3.110654         2.382401
 H        -1.065983         4.827054         0.401275
 H         0.170608         3.530114         0.352728
 H        -1.957319         1.759442        -1.999587
