19
Iteration:   237
 O        -0.744299        -0.068293         0.371063
 C        -1.759456         0.879559         0.202819
 C        -3.150597         0.248885         0.150623
 C        -3.342061         1.830711        -0.002198
 C        -2.443228         2.004887         1.186599
 C        -1.821971         3.424421         1.271546
 C        -0.639984         3.624678         0.216377
 O        -1.357273         3.117980        -0.971808
 C        -2.063534         1.871412        -0.895233
 H        -0.127007         0.100322         1.098453
 H        -3.318423        -0.254093        -0.730068
 H        -3.433885        -0.438992         0.992135
 H        -4.220939         2.445660        -0.206185
 H        -2.634101         1.565986         2.087695
 H        -2.496576         4.156498         0.834127
 H        -1.645519         3.725380         2.284753
 H        -0.262423         4.609040         0.023241
 H         0.152157         2.813432         0.334680
 H        -2.339163         1.586865        -1.970923
