19
Iteration:  1395charge 0 multiplicity 1
 O        -0.733958        -0.052737         0.532876
 C        -1.737928         0.884886         0.242572
 C        -3.105043         0.316800        -0.078989
 C        -3.425282         1.762550        -0.088613
 C        -2.480240         1.921381         1.175374
 C        -1.576730         3.178282         1.421566
 C        -0.736469         3.625010         0.198903
 O        -1.419070         3.220889        -1.020775
 C        -2.146346         2.000400        -0.919914
 H        -0.095286         0.367326         1.218974
 H        -3.122189        -0.164281        -1.050340
 H        -3.437497        -0.334999         0.722272
 H        -4.379439         2.304740        -0.308561
 H        -2.822967         1.487127         2.123339
 H        -2.245211         4.110510         1.632927
 H        -0.998323         3.168986         2.397573
 H        -0.685096         4.784562         0.037298
 H         0.345234         3.359720         0.304637
 H        -2.220751         1.672501        -1.980920
