19
Iteration:  3932
 O        -0.589997         0.144183         0.371616
 C        -1.783984         0.934137         0.235770
 C        -3.195541         0.365063        -0.053282
 C        -3.356551         1.861648        -0.147631
 C        -2.628351         1.892199         1.216229
 C        -1.725539         3.137259         1.513730
 C        -0.819122         3.628389         0.320508
 O        -1.288069         3.086238        -0.984765
 C        -1.994365         1.842208        -0.863312
 H        -0.051936         0.539500        -0.285594
 H        -3.213120        -0.255359        -0.987526
 H        -3.778102        -0.189099         0.756263
 H        -4.256755         2.339289        -0.500957
 H        -3.039757         1.366937         2.075939
 H        -2.395158         3.952883         1.772385
 H        -1.225911         2.891867         2.473965
 H        -0.873697         4.692228         0.057433
 H         0.305742         3.379566         0.422142
 H        -1.977235         1.388464        -1.929323
