19
Iteration:  4596
 O        -0.505050         0.218001         0.407592
 C        -1.744382         0.930816         0.114464
 C        -3.141208         0.343710        -0.392270
 C        -3.425066         1.782429        -0.060351
 C        -2.498933         1.766397         1.203898
 C        -1.882305         3.135861         1.456000
 C        -0.789159         3.480587         0.518147
 O        -1.300191         3.221478        -0.879908
 C        -2.072344         2.064351        -0.893980
 H        -0.676279        -0.399721         1.230471
 H        -3.125357        -0.094427        -1.421242
 H        -3.437621        -0.407538         0.364662
 H        -4.425654         2.175821        -0.110729
 H        -2.841290         1.139265         2.035000
 H        -2.616310         3.963792         1.285922
 H        -1.523009         3.172078         2.499242
 H        -0.492457         4.532982         0.404355
 H         0.173942         2.910274         0.580891
 H        -2.102732         1.663164        -1.959253
