19
Iteration:  3125charge 0 multiplicity 1
 O        -0.618462         0.085792         0.564944
 C        -1.789496         0.852641         0.176549
 C        -3.181708         0.299009        -0.186764
 C        -3.423026         1.848247        -0.021566
 C        -2.366386         1.814850         1.220112
 C        -1.685140         3.235539         1.441519
 C        -0.766083         3.646695         0.259838
 O        -1.383633         3.137978        -0.991954
 C        -2.129816         1.989544        -0.942434
 H         0.021892        -0.079464        -0.086045
 H        -3.241383        -0.138736        -1.123154
 H        -3.630308        -0.342860         0.572234
 H        -4.417968         2.371205        -0.150800
 H        -2.802201         1.435613         2.195482
 H        -2.476550         3.961196         1.811543
 H        -0.953082         3.074952         2.326095
 H        -1.036061         4.691686         0.265843
 H         0.273135         3.319270         0.314704
 H        -2.202623         1.613678        -1.951781
