19
Iteration:   192charge 0 multiplicity 1
 O        -0.703239         0.091469         0.480644
 C        -1.789627         0.901222         0.247041
 C        -3.176260         0.337394         0.055674
 C        -3.340480         1.900236        -0.001559
 C        -2.438233         2.006181         1.210751
 C        -1.725542         3.276140         1.413037
 C        -0.887394         3.490579         0.169249
 O        -1.245133         2.985703        -1.118157
 C        -2.053669         1.895858        -0.897408
 H         0.091889         0.607292         0.179037
 H        -3.418748        -0.219532        -0.796747
 H        -3.587040        -0.137133         0.962779
 H        -4.278358         2.514787        -0.261058
 H        -2.855034         1.611874         2.070597
 H        -2.440545         4.090786         1.553287
 H        -1.062618         3.272890         2.231906
 H        -0.893211         4.522346         0.064996
 H         0.142726         3.121705         0.454805
 H        -2.188227         1.405669        -1.917535
