19
Iteration:  4241charge 0 multiplicity 1
 O        -0.584785         0.101078         0.307223
 C        -1.755359         0.969997         0.268223
 C        -3.111745         0.283523        -0.065539
 C        -3.416619         1.795871        -0.230656
 C        -2.499142         1.952035         1.170794
 C        -1.739695         3.220280         1.481469
 C        -0.780998         3.514744         0.367473
 O        -1.428534         3.199712        -0.862549
 C        -2.003033         1.917729        -0.964776
 H        -0.674299        -0.438825         1.052755
 H        -3.105939        -0.316965        -0.971707
 H        -3.582295        -0.305522         0.723247
 H        -4.232629         2.429558        -0.591537
 H        -2.972095         1.441088         1.970851
 H        -2.607838         3.909462         1.626911
 H        -1.181908         3.216062         2.457402
 H        -0.678218         4.607508         0.366627
 H         0.172083         2.925993         0.672610
 H        -1.841683         1.601040        -2.046327
