19
Iteration:  3209charge 0 multiplicity 1
 O        -0.635407         0.149638         0.312894
 C        -1.800100         0.886800         0.264170
 C        -3.084918         0.233673        -0.089236
 C        -3.468885         1.798048         0.053644
 C        -2.431213         1.841471         1.245420
 C        -1.786860         3.242701         1.414660
 C        -0.701449         3.451435         0.299208
 O        -1.301503         3.159835        -1.001745
 C        -2.137276         2.077316        -0.929677
 H         0.068286         0.503655         0.984942
 H        -3.329971        -0.185354        -1.131469
 H        -3.727690        -0.239687         0.736240
 H        -4.462384         2.053267        -0.179035
 H        -2.908381         1.506089         2.158061
 H        -2.587966         3.960930         1.139287
 H        -1.374863         3.547767         2.335691
 H        -0.369981         4.560349         0.295512
 H         0.264863         2.913401         0.246628
 H        -2.249027         1.773675        -1.960568
