19
Iteration:  2352charge 0 multiplicity 1
 O        -0.556436         0.123171         0.256077
 C        -1.747978         0.851217         0.192091
 C        -3.228309         0.257744        -0.123275
 C        -3.361259         1.861732         0.044193
 C        -2.486430         1.920503         1.282773
 C        -1.823959         3.281153         1.358286
 C        -0.832099         3.493090         0.306477
 O        -1.293558         3.113614        -0.973155
 C        -2.027153         1.977543        -0.855368
 H        -0.442097        -0.094745         1.257311
 H        -3.350217        -0.130517        -1.103798
 H        -3.360846        -0.267498         0.834041
 H        -4.333498         2.521592        -0.062126
 H        -2.891728         1.499936         2.191469
 H        -2.550725         4.073680         1.292236
 H        -1.364318         3.442069         2.409617
 H        -0.671767         4.559791         0.358016
 H         0.089318         2.938735         0.400153
 H        -2.031146         1.675754        -1.871862
