19
Iteration:  1785
 O        -0.678842         0.089675         0.486304
 C        -1.737261         0.949731         0.176063
 C        -3.240707         0.293624        -0.053715
 C        -3.392587         1.765664        -0.030021
 C        -2.382958         1.892717         1.205075
 C        -1.723369         3.230791         1.421430
 C        -0.826664         3.562308         0.249068
 O        -1.300326         3.117479        -1.029793
 C        -2.093907         1.966416        -0.894479
 H         0.166054         0.469258         0.029494
 H        -3.360823        -0.147491        -1.027055
 H        -3.593945        -0.193006         0.820819
 H        -4.282296         2.421814        -0.163066
 H        -2.742943         1.507463         2.171768
 H        -2.438659         4.147478         1.594227
 H        -1.184532         3.171121         2.310701
 H        -0.652750         4.583452         0.232345
 H         0.162465         3.112811         0.463787
 H        -2.236766         1.398529        -1.913429
