19
Iteration:  1550
 O        -0.626708         0.191034         0.422966
 C        -1.801076         0.862159         0.196472
 C        -3.175232         0.210982        -0.057718
 C        -3.425582         1.819918        -0.094069
 C        -2.545537         1.967800         1.168401
 C        -1.627830         3.214090         1.508549
 C        -0.729701         3.499597         0.294660
 O        -1.381017         3.199888        -1.028729
 C        -2.049737         1.933152        -0.942008
 H        -0.617516        -0.082253         1.314178
 H        -3.357317        -0.399413        -0.915894
 H        -3.448829        -0.234924         0.884722
 H        -4.350721         2.229883        -0.326819
 H        -3.010339         1.474996         2.023084
 H        -2.267127         4.110359         1.754414
 H        -0.815098         3.150584         2.243179
 H        -0.450658         4.597457         0.260900
 H         0.146612         2.843295         0.274005
 H        -2.049399         1.694190        -2.013977
