19
Iteration:  3897charge 0 multiplicity 1
 O        -0.654950         0.143274         0.525490
 C        -1.814083         0.878255         0.105662
 C        -3.196178         0.298485        -0.143410
 C        -3.408089         1.902799        -0.053034
 C        -2.438365         1.795977         1.177798
 C        -1.684562         3.132833         1.540003
 C        -0.825265         3.766533         0.273709
 O        -1.229318         2.993761        -0.974275
 C        -2.086665         1.929782        -0.949803
 H         0.048143         0.821368         0.510054
 H        -3.364006        -0.072787        -1.149317
 H        -3.702321        -0.303349         0.706945
 H        -4.397764         2.361966        -0.338252
 H        -2.787742         1.195078         1.986499
 H        -2.441392         3.896275         1.683330
 H        -1.003730         3.062839         2.458347
 H        -1.194145         4.745785         0.069320
 H         0.246324         3.774815         0.495234
 H        -2.409574         1.585177        -1.946135
