19
Iteration:  2720charge 0 multiplicity 1
 O        -0.546006         0.240028         0.388779
 C        -1.721688         0.917786         0.170809
 C        -3.284891         0.325781        -0.065621
 C        -3.386026         1.839479        -0.060040
 C        -2.405153         1.804869         1.226348
 C        -1.806349         3.164303         1.394065
 C        -0.870021         3.476711         0.351416
 O        -1.306475         3.125758        -0.984270
 C        -2.027953         2.012372        -0.877472
 H        -0.766776        -0.672059         0.354318
 H        -3.175129        -0.250696        -1.049087
 H        -3.827270        -0.125424         0.832719
 H        -4.231437         2.640555        -0.158966
 H        -2.610279         1.437968         2.192281
 H        -2.624455         3.903359         1.231600
 H        -1.227017         3.363655         2.363373
 H        -0.595273         4.500822         0.280664
 H         0.104013         3.044441         0.449322
 H        -1.974768         1.540147        -1.938631
