19
Iteration:  4284charge 0 multiplicity 1
 O        -0.536688         0.133283         0.404556
 C        -1.701147         0.985544         0.182481
 C        -3.231295         0.334288        -0.183704
 C        -3.371298         1.809796        -0.064063
 C        -2.470086         1.793293         1.205119
 C        -1.858771         3.099020         1.445638
 C        -0.826242         3.494537         0.298247
 O        -1.257327         3.168268        -0.971093
 C        -2.099149         2.042469        -0.878630
 H        -0.117250         0.265034         1.269244
 H        -3.181258        -0.070224        -1.178204
 H        -3.715473        -0.211722         0.601170
 H        -4.328391         2.326021         0.001724
 H        -2.901422         1.476498         2.131606
 H        -2.518882         3.978352         1.447069
 H        -1.559332         3.261131         2.525296
 H        -0.734477         4.584517         0.245954
 H         0.105903         2.876042         0.613901
 H        -2.239686         1.706486        -1.958028
