19
Iteration:  1462
 O        -0.612726         0.244813         0.369486
 C        -1.825423         0.868367         0.214919
 C        -3.276323         0.306164        -0.042248
 C        -3.332540         1.834143        -0.046738
 C        -2.457841         1.902152         1.224150
 C        -1.746191         3.272991         1.490000
 C        -0.811359         3.638028         0.220503
 O        -1.204500         2.998787        -0.979205
 C        -2.055492         1.860719        -0.887026
 H        -0.534037        -0.573202        -0.065535
 H        -3.423121        -0.038667        -1.042760
 H        -3.712636        -0.220700         0.787679
 H        -4.198370         2.399126        -0.279684
 H        -2.975402         1.376332         2.037121
 H        -2.558687         4.081567         1.817753
 H        -1.140669         3.082222         2.403337
 H        -0.845829         4.803889         0.254758
 H         0.236468         3.291464         0.373924
 H        -2.298923         1.436913        -1.908931
