19
Iteration:  4546
 O        -0.570838         0.123451         0.400034
 C        -1.763294         0.867466         0.167380
 C        -3.197536         0.274174        -0.147027
 C        -3.325500         1.799843        -0.291504
 C        -2.540200         1.928646         1.095177
 C        -1.802671         3.072995         1.615712
 C        -0.803021         3.596845         0.429277
 O        -1.416723         3.264237        -0.790810
 C        -1.962054         1.936156        -0.937159
 H         0.227693         0.550738         0.184036
 H        -3.230676        -0.180557        -1.163397
 H        -3.732429        -0.446043         0.500488
 H        -4.242223         2.322441        -0.655209
 H        -3.175580         1.292647         1.747330
 H        -2.476918         3.857350         1.939280
 H        -1.145955         2.793336         2.458951
 H        -0.643743         4.675472         0.355705
 H         0.216402         3.209460         0.452397
 H        -1.865390         1.736888        -2.037124
