19
Iteration:  1171charge 0 multiplicity 1
 O        -0.599848         0.192224         0.417485
 C        -1.796637         0.880936         0.251886
 C        -3.286571         0.318408        -0.073817
 C        -3.407221         1.834624        -0.032628
 C        -2.526345         1.915758         1.172178
 C        -1.702538         3.261873         1.501321
 C        -0.794421         3.625632         0.232276
 O        -1.258199         3.007994        -1.010968
 C        -2.042322         1.864023        -0.875392
 H         0.049724         0.362800        -0.291677
 H        -3.515192        -0.186539        -1.023942
 H        -3.697828        -0.283948         0.762958
 H        -4.275175         2.530066        -0.157439
 H        -2.881018         1.435871         2.095633
 H        -2.418063         4.010608         1.807164
 H        -0.960794         2.747827         2.224203
 H        -0.666435         4.697007         0.088408
 H         0.327311         3.329531         0.415974
 H        -2.159411         1.461658        -1.828340
