19
Iteration:  3348
 O        -0.528296         0.223094         0.410953
 C        -1.822408         0.866698         0.166358
 C        -3.214228         0.298384        -0.063700
 C        -3.386332         1.811193        -0.088197
 C        -2.436221         1.901314         1.166742
 C        -1.797672         3.247467         1.533086
 C        -0.789944         3.514956         0.302286
 O        -1.352834         3.123385        -0.922591
 C        -2.013810         1.930269        -0.948400
 H        -0.390634        -0.271057        -0.403501
 H        -3.635313        -0.302558        -0.831264
 H        -3.572295        -0.004008         0.848862
 H        -4.248706         2.362509        -0.328857
 H        -2.917085         1.216450         1.870995
 H        -2.459041         4.141388         1.466313
 H        -1.332741         3.161713         2.583626
 H        -0.540520         4.572766         0.415376
 H         0.211445         2.956233         0.471865
 H        -2.082852         1.510450        -2.016872
