19
Iteration:  3672
 O        -0.664582        -0.009907         0.534447
 C        -1.701982         0.924561         0.173629
 C        -3.138798         0.305213        -0.105601
 C        -3.320309         1.824275        -0.098508
 C        -2.390633         1.832434         1.170562
 C        -1.810040         3.195630         1.459357
 C        -0.861940         3.713393         0.304443
 O        -1.372559         3.223333        -1.000876
 C        -2.030296         1.989199        -0.952515
 H        -0.731701        -0.744759        -0.149680
 H        -3.295982        -0.189538        -1.029071
 H        -3.614000        -0.243946         0.737823
 H        -4.226106         2.435357        -0.145241
 H        -2.858173         1.367710         2.058783
 H        -2.646308         3.908418         1.876641
 H        -1.154037         3.026929         2.339170
 H        -0.636060         4.744856         0.432914
 H         0.136763         3.172940         0.465579
 H        -1.927765         1.422847        -1.836117
