19
Iteration:  3033charge 0 multiplicity 1
 O        -0.500727         0.260594         0.290437
 C        -1.777339         0.895441         0.227124
 C        -3.175456         0.358974        -0.066213
 C        -3.369240         1.818014        -0.050541
 C        -2.440841         1.842010         1.257623
 C        -1.836231         3.205705         1.424101
 C        -0.734146         3.356152         0.296805
 O        -1.368441         3.155654        -0.973402
 C        -2.113688         1.982403        -0.910658
 H        -0.385418        -0.158914         1.215207
 H        -3.331816        -0.116783        -1.086928
 H        -3.628134        -0.169957         0.784896
 H        -4.297057         2.426665        -0.159613
 H        -3.010824         1.575802         2.118636
 H        -2.667381         4.017582         1.245227
 H        -1.328874         3.512956         2.347605
 H        -0.391614         4.412576         0.224928
 H        -0.031661         2.570093         0.686202
 H        -2.247778         1.496038        -1.891635
