19
Iteration:  1330charge 0 multiplicity 1
 O        -0.578118         0.342296         0.303875
 C        -1.821721         0.877046         0.195252
 C        -3.193512         0.231978         0.043181
 C        -3.535391         1.783897        -0.005921
 C        -2.566062         2.011124         1.197228
 C        -1.727147         3.284426         1.381606
 C        -0.692183         3.426946         0.344736
 O        -1.178632         3.046178        -1.021733
 C        -2.120988         1.917845        -0.883362
 H        -0.400850        -0.579464         0.505095
 H        -3.237908        -0.279124        -0.921299
 H        -3.658681        -0.396227         0.804077
 H        -4.398570         2.371654        -0.438895
 H        -2.869724         1.638767         2.212642
 H        -2.384314         4.213674         1.568916
 H        -1.223572         3.158932         2.293343
 H        -0.315791         4.530899         0.430323
 H         0.247190         2.904056         0.402572
 H        -2.359639         1.555242        -1.944199
