19
Iteration:  3976
 O        -0.607707         0.147363         0.524226
 C        -1.737832         0.869249         0.131881
 C        -3.122902         0.275459        -0.163322
 C        -3.465403         1.821682        -0.049127
 C        -2.389104         1.844405         1.215621
 C        -1.832268         3.232388         1.390807
 C        -0.700474         3.462297         0.333513
 O        -1.385588         3.247028        -0.932809
 C        -2.060017         1.987107        -0.898529
 H        -0.312683        -0.381397        -0.182646
 H        -3.513754        -0.155280        -1.137776
 H        -3.440868        -0.405649         0.669398
 H        -4.379063         2.379962        -0.162754
 H        -2.892896         1.486303         2.110223
 H        -2.557726         3.991889         1.115309
 H        -1.531808         3.633618         2.387256
 H        -0.361331         4.513034         0.395913
 H         0.167255         2.844935         0.497569
 H        -2.183022         1.601765        -1.972779
