19
Iteration:  4670
 O        -0.583692         0.241480         0.410652
 C        -1.779031         0.854623         0.118235
 C        -3.129167         0.291387        -0.344355
 C        -3.362217         1.812383        -0.206985
 C        -2.457837         1.695584         1.198988
 C        -1.909484         3.144016         1.583353
 C        -0.795636         3.616776         0.528643
 O        -1.291107         3.215447        -0.846411
 C        -1.987723         2.018352        -0.912973
 H        -0.554032        -0.747315         0.238790
 H        -3.206673         0.045663        -1.392478
 H        -3.663096        -0.344424         0.332297
 H        -4.228491         2.449809        -0.275446
 H        -3.083056         1.236509         2.013775
 H        -2.786608         3.808725         1.622400
 H        -1.392964         3.127675         2.559347
 H        -0.790459         4.690218         0.354879
 H         0.200315         3.304065         0.602729
 H        -2.034076         1.654219        -1.953649
