19
Iteration:  1752
 O        -0.531380         0.401076         0.520767
 C        -1.757439         0.890982         0.258192
 C        -3.312633         0.293431        -0.096233
 C        -3.367256         1.786982        -0.112314
 C        -2.505474         1.923202         1.206387
 C        -1.619832         3.134861         1.419201
 C        -0.748815         3.377729         0.257022
 O        -1.385752         3.171226        -1.024807
 C        -2.137007         1.917528        -0.849214
 H        -0.225631        -0.169207        -0.166729
 H        -3.404318        -0.173403        -1.071692
 H        -3.819923        -0.271866         0.637820
 H        -4.274820         2.341447        -0.383023
 H        -2.961714         1.589930         2.149944
 H        -2.302165         4.046192         1.681831
 H        -1.087295         2.865313         2.266214
 H        -0.430855         4.342514         0.155379
 H         0.106070         2.700159         0.394523
 H        -2.140498         1.414449        -1.885472
