19
Iteration:  2692charge 0 multiplicity 1
 O        -0.511864         0.255555         0.307335
 C        -1.754813         0.835799         0.145984
 C        -3.180924         0.226906        -0.062366
 C        -3.357248         1.809323        -0.045489
 C        -2.555250         1.974241         1.206909
 C        -1.800800         3.303481         1.453263
 C        -0.764496         3.459001         0.423320
 O        -1.300605         3.107550        -0.944018
 C        -2.150044         1.934543        -0.946088
 H        -0.615451        -0.663089         0.251781
 H        -3.281626        -0.258620        -0.982222
 H        -3.627158        -0.299364         0.770135
 H        -4.193829         2.431094        -0.177380
 H        -3.009711         1.722811         2.214064
 H        -2.455004         4.195420         1.443257
 H        -1.279729         3.256434         2.364785
 H        -0.414502         4.510718         0.232271
 H         0.197520         2.907135         0.629832
 H        -2.151257         1.599022        -1.964388
