19
Iteration:   115
 O        -0.670128         0.161056         0.756704
 C        -1.823127         0.878770         0.204559
 C        -3.236748         0.329226        -0.030054
 C        -3.306406         1.911016        -0.049259
 C        -2.438385         1.950607         1.247188
 C        -1.471499         3.085223         1.435890
 C        -1.001153         3.706971         0.121736
 O        -1.260510         3.029253        -1.159382
 C        -2.103258         1.903669        -1.043782
 H        -0.642041        -0.739320         0.491648
 H        -3.433459        -0.193720        -0.939261
 H        -3.609264        -0.224735         0.844772
 H        -4.393068         2.429833        -0.074308
 H        -2.870456         1.527195         2.102712
 H        -1.940047         3.934432         1.949394
 H        -0.622901         2.782580         2.026201
 H        -1.434310         4.648767         0.002788
 H         0.106155         3.889910         0.217045
 H        -2.296243         1.441858        -2.106507
