19
Iteration:  2903
 O        -0.629080         0.032989         0.341290
 C        -1.797232         0.933961         0.258780
 C        -3.162318         0.243683        -0.067865
 C        -3.469802         1.758123        -0.034714
 C        -2.421442         1.897974         1.217060
 C        -1.773633         3.215591         1.425887
 C        -0.792121         3.601968         0.286548
 O        -1.303404         3.190638        -0.991740
 C        -2.101749         2.015883        -0.910770
 H         0.182986         0.342388         0.757221
 H        -3.170403        -0.193412        -1.065999
 H        -3.503960        -0.419874         0.695408
 H        -4.309569         2.509860        -0.256011
 H        -2.828034         1.356762         2.205256
 H        -2.575547         3.993446         1.494088
 H        -1.086100         3.401872         2.310087
 H        -0.279503         4.633471         0.316935
 H         0.090420         3.026292         0.410760
 H        -1.985522         1.488459        -1.859839
