19
Iteration:  1176
 O        -0.589337         0.191319         0.471532
 C        -1.733129         0.888928         0.217548
 C        -3.324253         0.324996        -0.077399
 C        -3.405564         1.830067        -0.012308
 C        -2.497745         1.885671         1.153524
 C        -1.682340         3.222998         1.513697
 C        -0.801082         3.610843         0.234405
 O        -1.261018         3.026589        -1.017948
 C        -2.085000         1.873478        -0.892050
 H        -0.029494         0.405678        -0.284515
 H        -3.654565        -0.076407        -1.048564
 H        -3.716407        -0.179065         0.799646
 H        -4.162896         2.513454        -0.357328
 H        -3.060283         1.529956         2.049067
 H        -2.340780         4.006612         1.982539
 H        -0.950956         2.983193         2.243057
 H        -0.846541         4.701777         0.005529
 H         0.194358         3.277544         0.389309
 H        -2.072452         1.427185        -1.975250
