19
Iteration:  2632charge 0 multiplicity 1
 O        -0.517853         0.184145         0.460252
 C        -1.714381         0.821973         0.163463
 C        -3.234439         0.375650        -0.120763
 C        -3.402600         1.837051        -0.097099
 C        -2.425308         1.795990         1.198221
 C        -1.742939         3.185642         1.426897
 C        -0.735324         3.547164         0.300725
 O        -1.421786         3.186839        -0.952677
 C        -2.131470         1.988767        -0.957975
 H        -0.506161        -0.214605         1.328979
 H        -3.433876        -0.222620        -1.107775
 H        -3.653494        -0.159045         0.779784
 H        -4.309201         2.520625        -0.176997
 H        -2.957734         1.304789         2.048792
 H        -2.558771         3.941573         1.591998
 H        -1.212637         3.027025         2.443826
 H        -0.397974         4.581443         0.185747
 H         0.140623         2.900454         0.513877
 H        -2.033411         1.490260        -1.993177
