19
Iteration:  2246
 O        -0.554823         0.068186         0.501597
 C        -1.727815         0.821466         0.217661
 C        -3.180636         0.272322        -0.094575
 C        -3.402563         1.879734        -0.113731
 C        -2.375786         1.879119         1.167606
 C        -1.694659         3.231071         1.485859
 C        -0.791178         3.562515         0.271997
 O        -1.436357         3.223181        -1.007421
 C        -2.131023         1.980619        -0.976606
 H        -0.858902        -0.486290         1.318168
 H        -3.331420        -0.303215        -1.101935
 H        -3.781338        -0.415419         0.615901
 H        -4.277164         2.500945        -0.005049
 H        -2.742660         1.412247         2.143916
 H        -2.404493         4.170296         1.563240
 H        -1.132057         3.209313         2.422166
 H        -0.668313         4.689005         0.327786
 H         0.255478         3.168766         0.093246
 H        -2.150309         1.599004        -2.082834
