19
Iteration:    97charge 0 multiplicity 1
 O        -0.738721         0.051469         0.665764
 C        -1.808501         0.761813         0.298290
 C        -3.282203         0.310031         0.002462
 C        -3.368523         1.854084        -0.063553
 C        -2.311410         1.900168         1.118397
 C        -1.499466         3.232448         1.373578
 C        -0.998034         3.920900         0.051135
 O        -1.233212         3.035286        -1.046673
 C        -2.033169         1.869899        -0.896864
 H        -0.726358        -0.755820         0.171254
 H        -3.471494        -0.241752        -0.941702
 H        -3.959761        -0.110390         0.840460
 H        -4.154735         2.453257        -0.244214
 H        -2.741563         1.636329         2.180909
 H        -2.147178         3.813203         2.066891
 H        -0.621449         2.830442         1.989455
 H        -1.592440         4.914776        -0.052984
 H         0.052346         4.070304         0.104847
 H        -2.062099         1.530931        -1.912221
