19
Iteration:  2707charge 0 multiplicity 1
 O        -0.543815         0.284772         0.327792
 C        -1.811767         0.884573         0.212502
 C        -3.246446         0.325469        -0.037910
 C        -3.400600         1.834662        -0.040721
 C        -2.429351         1.819674         1.230746
 C        -1.864574         3.225307         1.455219
 C        -0.727520         3.515996         0.287989
 O        -1.270213         3.183107        -0.974489
 C        -1.990718         1.876645        -0.919839
 H        -0.564224        -0.720584         0.269430
 H        -3.622695        -0.237098        -0.960556
 H        -3.689820        -0.225103         0.809671
 H        -4.415208         2.259659        -0.194135
 H        -2.870412         1.206463         1.969932
 H        -2.702443         3.903677         1.437911
 H        -1.514804         3.385170         2.543181
 H        -0.448213         4.600156         0.316050
 H         0.022363         2.776363         0.545632
 H        -2.103943         1.516266        -1.944418
