19
Iteration:  4012charge 0 multiplicity 1
 O        -0.512618         0.244022         0.493105
 C        -1.767879         0.928038         0.174400
 C        -3.142883         0.306961        -0.177899
 C        -3.461822         1.822970        -0.114823
 C        -2.484648         1.878956         1.208442
 C        -1.733301         3.243267         1.580337
 C        -0.798747         3.423310         0.342745
 O        -1.359399         3.192802        -1.035079
 C        -2.085483         1.941601        -0.922086
 H        -0.594202        -0.690173         0.382005
 H        -3.297018        -0.050559        -1.258403
 H        -3.484529        -0.332176         0.636057
 H        -4.470174         2.203295        -0.353688
 H        -3.033325         1.430463         2.092756
 H        -2.550714         3.940905         1.750797
 H        -1.140665         3.065479         2.434480
 H        -0.352785         4.453193         0.146016
 H         0.068379         2.647618         0.429907
 H        -2.088787         1.541812        -1.975212
