19
Iteration:   525
 O        -0.701320         0.098529         0.676666
 C        -1.758186         0.879602         0.336803
 C        -3.218484         0.302303        -0.144079
 C        -3.334179         1.779840        -0.123174
 C        -2.397574         2.015393         1.179899
 C        -1.550188         3.265273         1.325756
 C        -0.758368         3.540340         0.157509
 O        -1.523809         3.161976        -0.995328
 C        -2.037516         1.865788        -0.823488
 H        -0.397127        -0.308680        -0.166700
 H        -3.236351        -0.144798        -1.169842
 H        -3.843234        -0.232193         0.551494
 H        -4.125430         2.453479        -0.295946
 H        -2.945301         1.729205         2.091433
 H        -2.324418         3.976937         1.531802
 H        -0.952352         3.177146         2.229323
 H        -0.674976         4.738589        -0.019253
 H         0.216631         2.885602         0.076468
 H        -2.064115         1.500783        -1.921368
