19
Iteration:  4348
 O        -0.618739         0.123350         0.410832
 C        -1.728835         0.862070         0.174840
 C        -3.127614         0.231424        -0.055638
 C        -3.338815         1.863514        -0.207211
 C        -2.531319         1.951117         1.171014
 C        -1.792228         3.123856         1.504469
 C        -0.840375         3.467053         0.385887
 O        -1.421279         3.299035        -0.906594
 C        -1.947062         1.949571        -0.931500
 H         0.074162         0.217219        -0.171421
 H        -3.254563        -0.333352        -1.016985
 H        -3.577072        -0.329897         0.785918
 H        -4.055624         2.657256        -0.422444
 H        -3.144379         1.462389         2.033011
 H        -2.687506         3.764842         1.720766
 H        -1.237105         3.134860         2.494189
 H        -0.600631         4.542552         0.345391
 H         0.072589         2.859295         0.371174
 H        -1.874977         1.613742        -2.001496
