19
Iteration:   517charge 0 multiplicity 1
 O        -0.697883         0.102513         0.727577
 C        -1.773983         0.863311         0.338999
 C        -3.210662         0.307891        -0.148563
 C        -3.331310         1.820556        -0.106539
 C        -2.423735         1.952347         1.207077
 C        -1.576355         3.264545         1.332295
 C        -0.736468         3.517816         0.122337
 O        -1.595751         3.222977        -0.977864
 C        -2.007650         1.880591        -0.934607
 H        -0.427963        -0.461231        -0.062653
 H        -3.084851        -0.133400        -1.152870
 H        -3.836358        -0.341051         0.543677
 H        -4.281657         2.403578        -0.426014
 H        -2.659074         1.559721         2.196747
 H        -2.182332         4.173091         1.515172
 H        -0.813978         3.226828         2.152635
 H        -0.272117         4.507314         0.009954
 H         0.252579         2.879777         0.083727
 H        -1.885970         1.424231        -1.867805
