19
Iteration:  2794
 O        -0.497643         0.149811         0.537636
 C        -1.716722         0.864882         0.177902
 C        -3.278230         0.267190        -0.155031
 C        -3.360556         1.833597        -0.129195
 C        -2.419154         1.907310         1.194856
 C        -1.715913         3.230863         1.504818
 C        -0.812734         3.516258         0.319525
 O        -1.469319         3.266633        -0.978931
 C        -2.056864         1.918322        -0.976157
 H        -0.722751        -0.849753         0.415521
 H        -3.588415        -0.353645        -1.034026
 H        -3.677012        -0.289251         0.721176
 H        -4.278144         2.489118        -0.390036
 H        -2.870610         1.355464         2.094027
 H        -2.284534         4.089963         1.776795
 H        -0.929955         3.070440         2.324331
 H        -0.497591         4.663126         0.315727
 H         0.074843         2.749751         0.339666
 H        -2.028014         1.687750        -2.036761
