19
Iteration:  4987charge 0 multiplicity 1
 O        -0.572479         0.182265         0.329745
 C        -1.614211         0.909037         0.129131
 C        -3.073349         0.372431        -0.460610
 C        -3.355386         1.875649        -0.098279
 C        -2.512464         1.743355         1.138624
 C        -2.037037         3.061085         1.529276
 C        -0.892731         3.456010         0.533611
 O        -1.315777         3.252259        -0.768054
 C        -1.929830         2.043449        -0.879426
 H        -0.390002         0.097279         1.296628
 H        -3.101281         0.009911        -1.561958
 H        -3.647099        -0.386854         0.209087
 H        -4.299714         2.348391        -0.253944
 H        -2.816996         0.896886         1.781748
 H        -2.813112         3.864348         1.443589
 H        -1.566150         3.122333         2.582484
 H        -0.620954         4.554870         0.683529
 H        -0.084820         2.859065         0.889598
 H        -2.057966         1.882106        -2.062790
