19
Iteration:  3362
 O        -0.582397         0.238731         0.328659
 C        -1.711100         0.919203         0.157508
 C        -3.149554         0.287146        -0.001928
 C        -3.378426         1.832907        -0.136096
 C        -2.535142         1.952587         1.178603
 C        -1.774956         3.252000         1.428811
 C        -0.768044         3.455131         0.410846
 O        -1.366156         3.112288        -0.870368
 C        -2.076314         1.895142        -0.937470
 H        -0.545124        -0.549533        -0.243034
 H        -3.097477        -0.260622        -0.971431
 H        -3.600144        -0.390902         0.781788
 H        -4.329790         2.323076        -0.276883
 H        -2.900935         1.638180         2.193386
 H        -2.565706         4.021427         1.624799
 H        -1.245597         3.259729         2.344564
 H        -0.435712         4.501027         0.113075
 H         0.123451         2.850992         0.609560
 H        -2.099781         1.594442        -2.004454
