19
Iteration:  4568
 O        -0.581603         0.229657         0.499035
 C        -1.802093         0.894017         0.140402
 C        -3.132679         0.286503        -0.299284
 C        -3.318690         1.864289        -0.157589
 C        -2.491795         1.771495         1.183712
 C        -1.820149         3.098823         1.562104
 C        -0.897962         3.512930         0.467755
 O        -1.319614         3.264243        -0.904305
 C        -2.018381         2.044726        -0.971381
 H        -0.185937        -0.417899        -0.182439
 H        -3.097062        -0.306405        -1.236632
 H        -3.463020        -0.463600         0.445936
 H        -4.329081         2.315684        -0.293658
 H        -2.998683         1.188556         2.001847
 H        -2.490288         3.916665         1.803485
 H        -1.166757         2.928645         2.441254
 H        -0.623015         4.564825         0.411378
 H         0.034390         2.956028         0.608918
 H        -2.077611         1.483124        -1.914453
