19
Iteration:  4680charge 0 multiplicity 1
 O        -0.541650         0.223358         0.442855
 C        -1.776879         0.859790         0.130923
 C        -3.143965         0.334680        -0.417447
 C        -3.371166         1.846808        -0.093452
 C        -2.471275         1.748654         1.160274
 C        -1.802272         3.062869         1.530869
 C        -0.906994         3.604723         0.459278
 O        -1.282182         3.229121        -0.793972
 C        -2.018166         1.989664        -0.934552
 H        -0.770459        -0.674785         0.701745
 H        -3.115407        -0.024847        -1.439093
 H        -3.693985        -0.363582         0.194844
 H        -4.278539         2.366849        -0.351323
 H        -2.773220         1.061121         2.004948
 H        -2.628929         3.763668         1.367224
 H        -1.586820         3.238049         2.581785
 H        -0.851389         4.712146         0.480634
 H         0.058483         3.195428         0.740450
 H        -1.878274         1.854087        -1.984783
