19
Iteration:  1306
 O        -0.593432         0.339662         0.279730
 C        -1.806419         0.928351         0.193357
 C        -3.188235         0.291912        -0.034119
 C        -3.460540         1.815444        -0.034297
 C        -2.550785         1.947932         1.264162
 C        -1.768891         3.351579         1.406779
 C        -0.713170         3.416665         0.279361
 O        -1.204414         2.977971        -0.937665
 C        -2.092068         1.891253        -0.887134
 H        -0.742201        -0.684248         0.238586
 H        -3.256884        -0.249348        -0.984050
 H        -3.663715        -0.268370         0.749741
 H        -4.471338         2.276961         0.162320
 H        -2.797849         1.490059         2.209840
 H        -2.579540         4.098180         1.395675
 H        -1.262967         3.459013         2.408032
 H        -0.405654         4.483022         0.134642
 H         0.324530         3.005177         0.438247
 H        -2.010231         1.323209        -1.783408
