19
Iteration:  3462charge 0 multiplicity 1
 O        -0.642853         0.029712         0.428137
 C        -1.807401         0.945755         0.273640
 C        -3.111234         0.323289        -0.113409
 C        -3.343224         1.831782        -0.175358
 C        -2.532571         1.861794         1.172786
 C        -1.677442         3.125864         1.543240
 C        -0.870554         3.678058         0.307100
 O        -1.333367         3.128555        -0.935614
 C        -2.045868         1.957899        -0.966995
 H        -0.032100         0.699888         0.198968
 H        -3.065182        -0.267948        -1.044310
 H        -3.789820        -0.192967         0.653128
 H        -4.399113         2.360680        -0.413606
 H        -3.102165         1.463050         2.060179
 H        -2.201003         3.943067         2.144448
 H        -1.030781         2.721041         2.277926
 H        -0.853028         4.800212         0.173530
 H         0.235217         3.451269         0.282039
 H        -2.082151         1.516196        -1.998048
