19
Iteration:  3752
 O        -0.536447         0.275760         0.359901
 C        -1.798402         0.926067         0.240482
 C        -3.166836         0.262892        -0.030697
 C        -3.460521         1.794076        -0.157632
 C        -2.596912         1.965258         1.065773
 C        -1.768996         3.233252         1.484987
 C        -0.680261         3.438463         0.386831
 O        -1.307750         3.097539        -0.920426
 C        -2.082554         1.893754        -0.887346
 H         0.050320         0.829527        -0.205896
 H        -3.195528        -0.478251        -0.894953
 H        -3.621378        -0.086050         0.880210
 H        -4.391955         2.265976        -0.459602
 H        -3.101211         1.546538         1.975240
 H        -2.515873         4.023566         1.808672
 H        -1.302859         2.811529         2.416520
 H        -0.276803         4.492414         0.414797
 H         0.136994         2.611787         0.420658
 H        -2.217178         1.574636        -1.910901
