19
Iteration:   748charge 0 multiplicity 1
 O        -0.556192         0.150178         0.318880
 C        -1.833170         0.921981         0.244102
 C        -3.279032         0.297886         0.014660
 C        -3.395797         1.878266        -0.033273
 C        -2.562086         2.021738         1.266628
 C        -1.762255         3.312984         1.401995
 C        -0.762172         3.507427         0.218150
 O        -1.248768         2.973579        -0.955581
 C        -2.025891         1.817762        -0.891031
 H        -0.005620         0.869489        -0.175565
 H        -3.323227        -0.408275        -0.780382
 H        -3.726031        -0.181277         0.883362
 H        -4.315800         2.451556        -0.301033
 H        -2.966811         1.632936         2.142344
 H        -2.423989         4.069812         1.604041
 H        -0.989698         3.300649         2.213693
 H        -0.574781         4.477941        -0.056718
 H         0.162011         2.975128         0.561374
 H        -2.108810         1.453900        -1.853231
