19
Iteration:   495
 O        -0.676822         0.152636         0.808477
 C        -1.700892         0.874417         0.242626
 C        -3.136098         0.274802        -0.062145
 C        -3.325656         1.805777        -0.132213
 C        -2.428362         1.952011         1.123275
 C        -1.573338         3.163794         1.415113
 C        -0.741809         3.387370         0.141715
 O        -1.550886         3.317368        -1.074154
 C        -2.150779         2.013019        -0.989863
 H        -0.619758        -0.703594         0.409110
 H        -3.332599        -0.342857        -0.969363
 H        -3.545119        -0.159780         0.897310
 H        -4.295255         2.406945        -0.222167
 H        -2.998801         1.579650         1.993439
 H        -2.312734         3.976055         1.561044
 H        -0.939361         3.119430         2.349240
 H        -0.141158         4.298417         0.067940
 H         0.145859         2.680898        -0.000849
 H        -2.237746         1.708752        -1.985045
