19
Iteration:  1152charge 0 multiplicity 1
 O        -0.682824         0.144121         0.305862
 C        -1.812107         0.898889         0.296111
 C        -3.148791         0.243136        -0.020814
 C        -3.422790         1.851972        -0.037704
 C        -2.471339         1.938768         1.261173
 C        -1.721624         3.273056         1.410622
 C        -0.785431         3.535958         0.287130
 O        -1.201082         3.030033        -0.957046
 C        -2.119237         1.927599        -0.893125
 H        -0.249298         0.579435        -0.409680
 H        -3.172968        -0.275922        -0.975826
 H        -3.713728        -0.250139         0.741806
 H        -4.360620         2.266852        -0.417608
 H        -3.038480         1.743192         2.167601
 H        -2.544706         4.034138         1.325361
 H        -1.103921         3.517063         2.282176
 H        -0.760825         4.585761         0.162550
 H         0.284976         3.223385         0.510605
 H        -2.017397         1.474662        -1.898238
