19
Iteration:   160charge 0 multiplicity 1
 O        -0.620951         0.329816         0.619455
 C        -1.896462         0.776333         0.263571
 C        -3.372338         0.207822        -0.009302
 C        -3.464023         1.790123        -0.115507
 C        -2.466056         2.031674         1.119694
 C        -1.453859         3.163306         1.454630
 C        -0.794405         3.655612         0.169087
 O        -1.271763         3.040242        -1.049675
 C        -2.053864         1.835757        -0.882092
 H        -0.112358         0.179317        -0.156806
 H        -3.654487        -0.335402        -0.845664
 H        -3.894667        -0.171819         0.936760
 H        -4.297458         2.409541        -0.589302
 H        -2.949976         1.831089         2.039910
 H        -1.894910         4.032873         1.993280
 H        -0.679110         2.711754         2.074209
 H        -1.005642         4.660601         0.002193
 H         0.298964         3.572515         0.098171
 H        -2.112890         1.385785        -1.957152
