19
Iteration:  1718charge 0 multiplicity 1
 O        -0.627371         0.356683         0.497665
 C        -1.747439         0.942731         0.131548
 C        -3.160953         0.259123         0.007549
 C        -3.393142         1.788180        -0.102021
 C        -2.460410         1.977138         1.079881
 C        -1.656259         3.163056         1.459454
 C        -0.690962         3.362562         0.335612
 O        -1.404487         3.146880        -0.954755
 C        -2.196175         1.940522        -0.968748
 H        -0.476083        -0.543692         0.539903
 H        -3.364414        -0.312481        -0.875166
 H        -3.442782        -0.196350         0.928300
 H        -4.426907         2.197131        -0.375220
 H        -2.863592         1.472083         1.961488
 H        -2.347396         4.102976         1.587634
 H        -1.113364         3.040822         2.346955
 H        -0.312773         4.340690         0.335715
 H         0.181467         2.700412         0.358663
 H        -2.259613         1.680989        -2.109266
