19
Iteration:  1132charge 0 multiplicity 1
 O        -0.617050         0.056849         0.300713
 C        -1.753958         0.881660         0.150317
 C        -3.218028         0.319191         0.022445
 C        -3.392994         1.860936         0.016632
 C        -2.472327         1.964081         1.227080
 C        -1.889132         3.355063         1.399696
 C        -0.721738         3.506628         0.330789
 O        -1.264746         3.055531        -0.985114
 C        -2.051067         1.894372        -0.887971
 H         0.117293         0.568632        -0.063446
 H        -3.350448        -0.257806        -0.905758
 H        -3.602503        -0.160493         0.914015
 H        -4.355820         2.363801         0.009871
 H        -2.685439         1.450454         2.192645
 H        -2.564995         4.223030         1.312198
 H        -1.533705         3.465465         2.370529
 H        -0.308212         4.495812         0.093584
 H         0.007266         2.824702         0.621487
 H        -2.220293         1.564187        -2.000003
