19
Iteration:  3542charge 0 multiplicity 1
 O        -0.644662         0.072715         0.258980
 C        -1.760525         0.890400         0.185973
 C        -3.076975         0.329754        -0.111622
 C        -3.367815         1.790334        -0.160498
 C        -2.485312         1.940959         1.202823
 C        -1.827155         3.278991         1.488289
 C        -0.830443         3.572596         0.355618
 O        -1.341857         3.174053        -0.872764
 C        -1.992043         1.917276        -0.880754
 H        -0.464919        -0.229718         1.123123
 H        -3.208395        -0.128974        -1.185171
 H        -3.525068        -0.264310         0.728457
 H        -4.360230         2.151858        -0.354305
 H        -2.931307         1.514270         2.126731
 H        -2.524094         4.044593         1.693721
 H        -1.198743         3.092367         2.370573
 H        -0.553702         4.600826         0.392448
 H         0.050351         2.923875         0.506891
 H        -2.012809         1.434096        -1.843384
