19
Iteration:  2342
 O        -0.576959         0.235047         0.259259
 C        -1.808142         0.864236         0.255528
 C        -3.186845         0.318702        -0.033684
 C        -3.349246         1.795404        -0.007686
 C        -2.442685         1.819132         1.204793
 C        -1.888174         3.259359         1.364104
 C        -0.757914         3.473614         0.298416
 O        -1.263216         3.132577        -0.949732
 C        -2.084542         2.002892        -0.899064
 H        -0.380467        -0.216225         1.146984
 H        -3.327189        -0.264281        -0.943541
 H        -3.895377        -0.193460         0.627873
 H        -4.269928         2.455841        -0.008687
 H        -2.766383         1.401994         2.156509
 H        -2.619472         4.008239         1.403147
 H        -1.229285         3.337303         2.285461
 H        -0.409205         4.506564         0.122775
 H         0.128993         2.908376         0.574102
 H        -2.171108         1.504114        -1.810580
