19
Iteration:   504charge 0 multiplicity 1
 O        -0.665991         0.115769         0.803881
 C        -1.805662         0.854068         0.243643
 C        -3.123501         0.285331        -0.084824
 C        -3.354321         1.842590        -0.131783
 C        -2.413557         1.908137         1.210244
 C        -1.571411         3.249431         1.424430
 C        -0.682251         3.434189         0.068153
 O        -1.597249         3.327928        -1.039333
 C        -2.053166         1.943983        -0.991629
 H        -0.508694        -0.662764         0.293983
 H        -3.323355        -0.193950        -1.081131
 H        -3.567835        -0.300063         0.731924
 H        -4.275810         2.406417        -0.300492
 H        -3.022662         1.509508         2.032898
 H        -2.273657         4.067182         1.573365
 H        -1.047479         3.068368         2.377739
 H        -0.290851         4.579890         0.005513
 H         0.012611         2.445904         0.013603
 H        -2.047278         1.506443        -2.023244
