19
Iteration:  3154
 O        -0.637404         0.120368         0.401006
 C        -1.813458         0.900370         0.258262
 C        -3.157768         0.229362        -0.040641
 C        -3.413746         1.860502        -0.115649
 C        -2.468260         1.889346         1.222635
 C        -1.718138         3.204708         1.490611
 C        -0.785839         3.548627         0.258968
 O        -1.397222         3.184403        -1.008492
 C        -2.030199         1.949911        -0.923388
 H         0.141550         0.498838        -0.042565
 H        -3.172494        -0.437197        -0.968133
 H        -3.663096        -0.245184         0.837345
 H        -4.194982         2.421290        -0.516043
 H        -2.851255         1.503533         2.141180
 H        -2.221783         4.029368         2.051939
 H        -1.003788         2.866008         2.205906
 H        -0.638116         4.647060         0.399783
 H         0.237388         3.090880         0.403447
 H        -2.037012         1.481876        -1.899435
