19
Iteration:  4333charge 0 multiplicity 1
 O        -0.526702         0.094019         0.386791
 C        -1.783198         0.857304         0.204990
 C        -3.172933         0.329590        -0.104546
 C        -3.344431         1.846807        -0.197896
 C        -2.552815         1.875695         1.088044
 C        -1.774711         3.172627         1.481754
 C        -0.747059         3.563324         0.406825
 O        -1.439756         3.200675        -0.818465
 C        -2.029738         1.890655        -0.938509
 H         0.138658         0.810735         0.097228
 H        -3.339642        -0.272347        -1.044390
 H        -3.663048        -0.040597         0.836309
 H        -4.341917         2.195734        -0.543076
 H        -3.079360         1.460824         1.983576
 H        -2.328510         4.151520         1.595607
 H        -1.312263         3.023055         2.450091
 H        -0.618448         4.667894         0.430065
 H         0.224503         3.015547         0.472670
 H        -1.957357         1.562003        -1.951359
