19
Iteration:  3814charge 0 multiplicity 1
 O        -0.665724        -0.064276         0.504816
 C        -1.738996         0.925016         0.180063
 C        -3.164695         0.296093        -0.128934
 C        -3.295341         1.790525        -0.039134
 C        -2.413378         1.878265         1.213172
 C        -1.829562         3.207878         1.497904
 C        -0.835348         3.611337         0.293589
 O        -1.342456         3.225668        -1.035852
 C        -2.043833         1.982783        -0.960553
 H         0.199398         0.371234         0.398441
 H        -3.382599        -0.327916        -0.991038
 H        -3.604479        -0.103240         0.776409
 H        -4.144429         2.423574        -0.105550
 H        -3.100862         1.353393         1.905377
 H        -2.472921         4.103511         1.427687
 H        -1.313092         3.381174         2.433187
 H        -0.635409         4.694839         0.196774
 H         0.125985         3.209788         0.500264
 H        -2.284471         1.726307        -2.013299
