19
Iteration:  2652charge 0 multiplicity 1
 O        -0.573306         0.250794         0.354356
 C        -1.808450         0.896611         0.209439
 C        -3.184276         0.185108        -0.062080
 C        -3.318193         1.832630        -0.074402
 C        -2.463067         1.922321         1.230135
 C        -1.770955         3.205794         1.427200
 C        -0.787144         3.415844         0.362540
 O        -1.396932         3.242491        -1.007209
 C        -2.001417         1.964625        -0.917397
 H        -0.689747        -0.611698         0.909607
 H        -3.277992        -0.274449        -1.115527
 H        -3.754420        -0.230517         0.774493
 H        -4.221584         2.410162        -0.187555
 H        -2.995833         1.447108         1.993433
 H        -2.456589         4.047514         1.301940
 H        -1.197360         3.197668         2.449558
 H        -0.336769         4.431954         0.566460
 H         0.072992         2.770473         0.283571
 H        -2.210712         1.581204        -1.935989
