19
Iteration:   710
 O        -0.642971         0.201981         0.623251
 C        -1.767790         0.902466         0.163953
 C        -3.195967         0.296008         0.028824
 C        -3.431526         1.824322        -0.020526
 C        -2.496951         1.910204         1.152701
 C        -1.620315         3.220163         1.373410
 C        -0.728905         3.382360         0.158776
 O        -1.385460         3.142762        -0.996920
 C        -2.127597         1.973879        -1.027218
 H         0.125328         0.680427         0.934873
 H        -3.367207        -0.234302        -0.965406
 H        -3.566316        -0.290746         0.900546
 H        -4.257583         2.462999        -0.282147
 H        -2.921526         1.411963         2.099519
 H        -2.362621         4.161920         1.557923
 H        -0.930477         3.129034         2.250586
 H        -0.260637         4.460578         0.063907
 H         0.073283         2.685830         0.333139
 H        -2.252917         1.629207        -2.167359
