19
Iteration:  4153
 O        -0.662126         0.131219         0.323374
 C        -1.766793         0.955781         0.251226
 C        -3.048172         0.288103        -0.079427
 C        -3.392565         1.832821        -0.134420
 C        -2.578070         1.949169         1.170556
 C        -1.803005         3.174019         1.531997
 C        -0.807128         3.486207         0.358184
 O        -1.306979         3.160215        -0.979922
 C        -2.005381         1.926217        -0.892011
 H         0.069838         0.697496         0.424906
 H        -3.155348        -0.320171        -1.019610
 H        -3.635288        -0.155695         0.740700
 H        -4.396728         2.215977        -0.383709
 H        -3.050278         1.563745         2.046326
 H        -2.561270         3.971132         1.725208
 H        -1.109109         3.069301         2.416044
 H        -0.474903         4.499100         0.100131
 H         0.056806         2.810299         0.576780
 H        -2.024035         1.365553        -1.893605
