19
Iteration:  4453
 O        -0.570923         0.140636         0.260994
 C        -1.763824         0.909834         0.200887
 C        -3.177844         0.242062        -0.138218
 C        -3.380691         1.777494        -0.235954
 C        -2.600987         1.921625         1.129491
 C        -1.810328         3.222559         1.559282
 C        -0.801381         3.463312         0.447344
 O        -1.314391         3.234917        -0.842550
 C        -2.000765         1.942084        -0.859220
 H         0.160872         0.811533         0.285131
 H        -3.152002        -0.354158        -1.057074
 H        -3.592357        -0.384334         0.645638
 H        -4.365695         2.201810        -0.468021
 H        -3.043613         1.501827         1.996576
 H        -2.524661         4.063752         1.593742
 H        -1.373751         3.047721         2.532288
 H        -0.518108         4.536531         0.482821
 H         0.199687         2.950236         0.606825
 H        -1.795565         1.595545        -1.853819
