19
Iteration:  2574
 O        -0.554583         0.114705         0.344344
 C        -1.817459         0.816460         0.193796
 C        -3.239956         0.319690        -0.041527
 C        -3.398296         1.839742        -0.067002
 C        -2.464988         1.934596         1.178864
 C        -1.710349         3.156161         1.513134
 C        -0.890630         3.624381         0.304548
 O        -1.313714         3.172972        -0.962625
 C        -1.999843         1.865129        -0.978693
 H        -0.201983         0.000520         1.307388
 H        -3.465548        -0.094942        -1.093676
 H        -3.689008        -0.288012         0.762839
 H        -4.138842         2.435810        -0.406172
 H        -2.956084         1.574679         2.047671
 H        -2.288283         4.065561         1.734220
 H        -0.978214         2.898176         2.419926
 H        -1.013479         4.770006         0.328162
 H         0.203156         3.466856         0.257441
 H        -1.917401         1.616922        -2.004882
