19
Iteration:  3119charge 0 multiplicity 1
 O        -0.588882         0.081400         0.596270
 C        -1.786501         0.856964         0.164174
 C        -3.177939         0.287234        -0.179178
 C        -3.392166         1.852971        -0.032143
 C        -2.359557         1.863669         1.199337
 C        -1.679070         3.225871         1.486587
 C        -0.826246         3.633442         0.273315
 O        -1.387758         3.119645        -0.995184
 C        -2.151762         1.995644        -0.927138
 H        -0.119386        -0.137255        -0.254684
 H        -3.339324        -0.133357        -1.270752
 H        -3.823506        -0.231294         0.564473
 H        -4.184140         2.609057        -0.216500
 H        -2.551921         1.197822         2.077190
 H        -2.581937         3.749300         1.762766
 H        -0.949507         3.206565         2.257510
 H        -0.888401         4.738453         0.044190
 H         0.209220         3.243902         0.339593
 H        -2.263926         1.675280        -2.024863
