19
Iteration:   591
 O        -0.589883         0.196649         0.340405
 C        -1.829733         0.813228         0.306425
 C        -3.359112         0.310633        -0.073621
 C        -3.368521         1.834244         0.027925
 C        -2.423224         1.976037         1.261221
 C        -1.734792         3.363209         1.368930
 C        -0.892076         3.709160         0.212378
 O        -1.081264         2.811538        -0.947913
 C        -2.104580         1.817251        -0.806269
 H        -0.115035         0.421282        -0.481233
 H        -3.439521        -0.133167        -1.071661
 H        -4.062516        -0.031422         0.680290
 H        -4.233102         2.410991        -0.291526
 H        -2.806734         1.818557         2.278005
 H        -2.389236         4.215645         1.486506
 H        -1.028286         3.318562         2.209987
 H        -1.056328         4.744389        -0.379778
 H         0.188524         3.461601         0.366107
 H        -2.362653         1.466798        -1.924936
