19
Iteration:  1698charge 0 multiplicity 1
 O        -0.524514         0.188348         0.449833
 C        -1.795466         0.909539         0.253556
 C        -3.173322         0.271207        -0.094287
 C        -3.405625         1.863961        -0.054672
 C        -2.484424         1.900509         1.256774
 C        -1.704479         3.275246         1.433824
 C        -0.761114         3.440869         0.252077
 O        -1.390780         3.170702        -1.003205
 C        -2.100854         1.969977        -0.947181
 H        -0.661931        -0.777022         0.417477
 H        -3.208649        -0.241468        -1.089536
 H        -3.695482        -0.368395         0.651996
 H        -4.397813         2.354244        -0.146052
 H        -2.881225         1.516224         2.218995
 H        -2.553736         4.088580         1.531864
 H        -1.193060         3.204871         2.360188
 H        -0.295332         4.330843        -0.028069
 H         0.070948         2.726685         0.431598
 H        -2.030147         1.582604        -1.989761
