19
Iteration:   358
 O        -0.593521         0.087968         0.458130
 C        -1.746115         0.822267         0.294336
 C        -3.224628         0.322339        -0.052667
 C        -3.340287         1.896500        -0.040442
 C        -2.451271         1.957430         1.203125
 C        -1.704342         3.365213         1.394781
 C        -0.803848         3.516861         0.200555
 O        -1.476771         3.119032        -1.070782
 C        -1.954584         1.871033        -0.886591
 H        -0.713687        -0.657504         1.140186
 H        -3.518862        -0.128500        -0.967905
 H        -3.678328        -0.086923         0.855849
 H        -4.204544         2.560339        -0.149451
 H        -2.815136         1.594773         2.120749
 H        -2.450748         4.142482         1.470010
 H        -1.150954         3.424095         2.276272
 H        -0.254270         4.451448        -0.077701
 H         0.081847         2.798890         0.335946
 H        -2.067128         1.297677        -1.859282
