19
Iteration:  2967charge 0 multiplicity 1
 O        -0.631812         0.095040         0.370592
 C        -1.767168         0.865468         0.252457
 C        -3.160659         0.251163        -0.067114
 C        -3.336797         1.839486        -0.099242
 C        -2.519024         1.888810         1.239953
 C        -1.628417         3.112643         1.452090
 C        -0.852088         3.642115         0.266590
 O        -1.396391         3.217887        -1.021090
 C        -2.050520         1.933798        -0.922623
 H        -0.332221         0.292472         1.229687
 H        -3.446089        -0.117205        -1.089895
 H        -3.518221        -0.290213         0.782101
 H        -4.155869         2.617659        -0.340155
 H        -3.092544         1.559017         2.167234
 H        -2.308385         3.946639         1.947246
 H        -1.077554         2.853070         2.378292
 H        -0.758650         4.794233         0.251362
 H         0.210641         3.198056         0.228050
 H        -1.893367         1.461218        -1.915910
