19
Iteration:  3916
 O        -0.625026         0.200277         0.421148
 C        -1.827975         0.816844         0.284643
 C        -3.252761         0.240687        -0.168901
 C        -3.401214         1.807964        -0.072841
 C        -2.475829         1.933556         1.185990
 C        -1.709942         3.172949         1.477979
 C        -0.895469         3.642444         0.294224
 O        -1.168999         3.067213        -0.966996
 C        -2.058576         1.935544        -0.910937
 H         0.188314         0.671190         0.105353
 H        -3.389095        -0.176458        -1.163348
 H        -3.825574        -0.270759         0.596635
 H        -4.323856         2.448109        -0.122054
 H        -2.978606         1.608987         2.119747
 H        -2.348904         3.976824         1.955701
 H        -0.877448         2.849572         2.118275
 H        -1.002472         4.735019         0.277066
 H         0.126743         3.389620         0.402456
 H        -1.999191         1.607427        -1.932204
