19
Iteration:  1701charge 0 multiplicity 1
 O        -0.514622         0.213070         0.459717
 C        -1.821919         0.905119         0.248802
 C        -3.150436         0.260792        -0.086236
 C        -3.413764         1.850716        -0.078023
 C        -2.467898         1.896369         1.239419
 C        -1.707341         3.290078         1.423681
 C        -0.765186         3.420654         0.258316
 O        -1.386621         3.161916        -0.979666
 C        -2.117549         1.977055        -0.971110
 H        -0.821941        -0.687060         0.408149
 H        -3.185965        -0.353201        -1.043281
 H        -3.781124        -0.309659         0.675818
 H        -4.306453         2.394519        -0.108705
 H        -2.866069         1.493076         2.193549
 H        -2.406188         4.080497         1.567627
 H        -1.100898         3.140937         2.402205
 H        -0.247099         4.440272         0.018634
 H         0.047575         2.680431         0.453737
 H        -2.177184         1.648100        -1.962161
