19
Iteration:  4095
 O        -0.581150         0.071175         0.419585
 C        -1.749027         0.919377         0.186550
 C        -3.176446         0.283413        -0.190744
 C        -3.392416         1.883213        -0.058194
 C        -2.401157         1.767203         1.277792
 C        -1.778925         3.193130         1.437913
 C        -0.849610         3.499238         0.323151
 O        -1.308169         3.223482        -1.009073
 C        -2.060622         2.026006        -0.946929
 H        -0.335599         0.153141         1.427101
 H        -3.286923        -0.229838        -1.161822
 H        -3.810180        -0.205583         0.553526
 H        -4.236308         2.565073        -0.066925
 H        -2.730951         1.325779         2.209262
 H        -2.725818         3.788552         1.291226
 H        -1.439668         3.521500         2.494875
 H        -0.820385         4.582682         0.409665
 H         0.207489         3.081018         0.537841
 H        -2.283961         1.568681        -1.922061
