19
Iteration:  1467charge 0 multiplicity 1
 O        -0.654083         0.255499         0.361846
 C        -1.802767         0.892254         0.168633
 C        -3.206289         0.290684        -0.036734
 C        -3.366177         1.850709        -0.018223
 C        -2.476661         1.911910         1.246737
 C        -1.775425         3.273820         1.511429
 C        -0.749624         3.621996         0.252847
 O        -1.198614         2.982967        -0.997972
 C        -2.087408         1.868777        -0.917248
 H        -0.489440        -0.675212         0.022898
 H        -3.500335        -0.182899        -1.028644
 H        -3.709096        -0.243776         0.807560
 H        -4.365975         2.253965        -0.383863
 H        -2.892513         1.395390         2.144220
 H        -2.510165         3.967509         1.763089
 H        -1.169649         3.240919         2.426223
 H        -0.825107         4.662079         0.152037
 H         0.325181         3.462741         0.428415
 H        -2.237444         1.511004        -1.938845
