19
Iteration:  2604
 O        -0.662788         0.179959         0.412192
 C        -1.813574         0.803026         0.172866
 C        -3.129872         0.271068        -0.152301
 C        -3.369440         1.846601        -0.062185
 C        -2.466893         1.893581         1.263064
 C        -1.651472         3.181063         1.540257
 C        -0.856695         3.601247         0.239097
 O        -1.349684         3.163862        -0.977307
 C        -2.067119         1.937432        -0.962721
 H        -0.366850         0.136419         1.274465
 H        -3.207096        -0.119455        -1.106007
 H        -3.551256        -0.382749         0.606423
 H        -4.261603         2.491324        -0.334507
 H        -3.020966         1.388477         2.108666
 H        -2.321388         3.967218         1.889844
 H        -0.944125         2.865498         2.259608
 H        -0.630693         4.674050         0.137261
 H         0.210178         3.261574         0.411163
 H        -2.046837         1.535855        -1.962833
