19
Iteration:  1173charge 0 multiplicity 1
 O        -0.598240         0.191831         0.439772
 C        -1.767580         0.884898         0.240569
 C        -3.303519         0.320210        -0.075934
 C        -3.406977         1.830370        -0.020468
 C        -2.519371         1.900808         1.159713
 C        -1.697002         3.253324         1.510375
 C        -0.797179         3.623226         0.231040
 O        -1.259393         3.013960        -1.014486
 C        -2.059393         1.867058        -0.882193
 H         0.051411         0.387157        -0.322480
 H        -3.578706        -0.134405        -1.020877
 H        -3.693174        -0.235353         0.760975
 H        -4.221126         2.531472        -0.238449
 H        -2.951431         1.475361         2.064039
 H        -2.393001         3.998277         1.871547
 H        -0.938642         2.813894         2.223217
 H        -0.730631         4.670048         0.061948
 H         0.311570         3.308420         0.407747
 H        -2.119695         1.456085        -1.861054
