19
Iteration:   202charge 0 multiplicity 1
 O        -0.676654        -0.000012         0.424364
 C        -1.761158         0.888913         0.276982
 C        -3.217392         0.335711         0.049863
 C        -3.283690         1.904437         0.012327
 C        -2.468271         1.971875         1.284591
 C        -1.807511         3.391217         1.432176
 C        -0.846458         3.540982         0.159659
 O        -1.267769         3.015977        -1.165170
 C        -2.043214         1.866017        -0.883060
 H         0.116620         0.562580         0.432543
 H        -3.325715        -0.052754        -0.924454
 H        -3.628392        -0.242088         0.867232
 H        -4.270999         2.581737        -0.179258
 H        -2.783048         1.452294         2.138023
 H        -2.612855         4.100400         1.439146
 H        -1.291724         3.521906         2.313110
 H        -0.396137         4.472802        -0.026266
 H         0.123129         2.889711         0.381224
 H        -2.286247         1.384837        -1.877247
