19
Iteration:   333
 O        -0.644724         0.254321         0.617501
 C        -1.804893         0.922295         0.251211
 C        -3.152101         0.281413         0.095127
 C        -3.412735         1.839227        -0.112037
 C        -2.497898         1.981761         1.149350
 C        -1.547268         3.142154         1.430417
 C        -0.792217         3.486999         0.178170
 O        -1.359570         3.113729        -1.049702
 C        -2.076706         1.927697        -1.038928
 H        -0.705481        -0.674868         0.207343
 H        -3.385025        -0.293513        -0.817716
 H        -3.691141        -0.180990         0.966218
 H        -4.521704         2.290625        -0.337149
 H        -3.010858         1.598159         2.089248
 H        -2.250683         3.963088         1.606628
 H        -0.890869         3.057249         2.305839
 H        -0.692850         4.503762         0.007517
 H         0.239538         3.089379         0.207913
 H        -2.210379         1.514384        -2.051497
