19
Iteration:  3776charge 0 multiplicity 1
 O        -0.613370         0.283117         0.421881
 C        -1.748867         0.925260         0.222119
 C        -3.217702         0.234874        -0.172159
 C        -3.379411         1.791521        -0.096729
 C        -2.562261         1.890761         1.249021
 C        -1.721651         3.283501         1.467022
 C        -0.713554         3.417773         0.356092
 O        -1.360215         3.093891        -0.939841
 C        -2.051411         1.927534        -0.949746
 H         0.249087         0.716811         0.082306
 H        -3.257270        -0.240453        -1.189260
 H        -3.659049        -0.432916         0.626920
 H        -4.343353         2.382674        -0.218803
 H        -3.092676         1.570562         2.158804
 H        -2.507920         4.031299         1.379322
 H        -1.257913         3.368070         2.467057
 H        -0.379502         4.463176         0.329364
 H         0.167490         2.651594         0.434333
 H        -2.202652         1.528842        -1.981861
