19
Iteration:  2919
 O        -0.713188         0.015961         0.408937
 C        -1.754478         0.857358         0.096882
 C        -3.090804         0.267672        -0.138350
 C        -3.353516         1.815840         0.010759
 C        -2.402364         1.894189         1.207394
 C        -1.721987         3.312254         1.464626
 C        -0.796123         3.606853         0.301261
 O        -1.381521         3.167987        -0.961506
 C        -2.073353         1.948604        -0.934670
 H        -0.226624         0.416595         1.212364
 H        -3.294178        -0.156481        -1.151103
 H        -3.541395        -0.264083         0.769987
 H        -4.373946         2.065041        -0.039159
 H        -2.746170         1.387340         2.044731
 H        -2.446318         4.103507         1.629503
 H        -1.236799         3.226796         2.423218
 H        -0.793618         4.623203         0.033243
 H         0.288764         3.224538         0.492017
 H        -2.400631         1.718623        -1.970330
