19
Iteration:  2164
 O        -0.580683         0.273927         0.273478
 C        -1.788840         0.941255         0.267635
 C        -3.210882         0.305993         0.019709
 C        -3.463728         1.788232        -0.022102
 C        -2.429408         1.851058         1.243593
 C        -1.813931         3.229972         1.410914
 C        -0.750814         3.531205         0.318383
 O        -1.240421         3.053474        -0.999716
 C        -2.039543         1.932220        -0.981667
 H        -0.584516        -0.557855         0.846345
 H        -3.344641        -0.212512        -0.956669
 H        -3.727049        -0.215749         0.861170
 H        -4.458569         2.299861        -0.024111
 H        -2.917360         1.542095         2.131386
 H        -2.563432         3.924031         1.247056
 H        -1.452846         3.510271         2.467784
 H        -0.550934         4.598927         0.207794
 H         0.230239         2.959133         0.486790
 H        -2.116118         1.683501        -2.028230
