19
Iteration:  4835
 O        -0.526065         0.091183         0.224769
 C        -1.729809         0.926133         0.140970
 C        -3.126309         0.292100        -0.286293
 C        -3.307324         1.836345        -0.318653
 C        -2.624875         1.866916         1.178338
 C        -1.911662         3.079791         1.610778
 C        -0.843688         3.537159         0.561389
 O        -1.380255         3.286939        -0.731280
 C        -1.904918         1.913564        -0.925013
 H         0.016450         0.555213         0.857307
 H        -3.296765        -0.094690        -1.280899
 H        -3.584410        -0.267912         0.533225
 H        -4.149342         2.532918        -0.497960
 H        -3.260709         1.241372         1.855784
 H        -2.651591         3.906959         1.521862
 H        -1.436049         3.139224         2.613584
 H        -0.824530         4.616322         0.818341
 H         0.176869         2.994096         0.831535
 H        -1.701182         1.627467        -1.986659
