19
Iteration:  4578
 O        -0.575790         0.284016         0.494287
 C        -1.742118         0.880285         0.132644
 C        -3.073519         0.262770        -0.288605
 C        -3.341259         1.861974        -0.105930
 C        -2.498823         1.758375         1.194504
 C        -1.886038         3.056656         1.541990
 C        -0.829143         3.494800         0.383111
 O        -1.298456         3.233614        -0.901576
 C        -2.067044         2.051354        -0.922855
 H        -0.704503        -0.679040         0.122478
 H        -3.071356         0.122947        -1.390037
 H        -3.667070        -0.423436         0.360685
 H        -4.256665         2.484602        -0.250636
 H        -3.016475         1.171921         1.982236
 H        -2.732248         3.727944         1.674221
 H        -1.279978         3.083462         2.461147
 H        -0.666230         4.574381         0.530877
 H         0.146451         2.949914         0.522859
 H        -2.099080         2.046136        -2.005069
