19
Iteration:  1231charge 0 multiplicity 1
 O        -0.634508         0.072521         0.609207
 C        -1.804402         0.840749         0.305019
 C        -3.124192         0.293071        -0.149267
 C        -3.481063         1.763634        -0.112049
 C        -2.493722         1.953307         1.179826
 C        -1.510676         3.237992         1.491905
 C        -0.783804         3.592026         0.209546
 O        -1.433434         3.202585        -1.024462
 C        -2.063640         1.998469        -0.965094
 H        -0.930860        -0.715460         0.221056
 H        -3.059440        -0.250981        -1.104231
 H        -3.673377        -0.323803         0.581311
 H        -4.439554         2.253407        -0.376105
 H        -2.794309         1.507026         2.181836
 H        -1.993197         4.137131         2.012111
 H        -0.807866         2.920262         2.174253
 H        -0.861396         4.735042         0.056788
 H         0.264614         3.361052         0.152441
 H        -2.079706         1.554687        -2.062477
