19
Iteration:  1626charge 0 multiplicity 1
 O        -0.631650         0.085570         0.293858
 C        -1.809862         0.839345         0.230244
 C        -3.191970         0.295935         0.019281
 C        -3.352622         1.867869        -0.093034
 C        -2.478064         1.943529         1.215582
 C        -1.742043         3.199031         1.449280
 C        -0.915062         3.710564         0.205935
 O        -1.236886         3.079439        -0.951253
 C        -1.992419         1.905091        -0.890193
 H        -0.824609        -0.600524         1.015797
 H        -3.403466        -0.242980        -0.906486
 H        -3.467498        -0.198661         0.964330
 H        -4.168922         2.497408        -0.257137
 H        -3.024643         1.526765         2.067398
 H        -2.434498         3.955365         1.784923
 H        -0.964425         3.047259         2.331318
 H        -0.979652         4.871186         0.164247
 H         0.165312         3.564753         0.308914
 H        -1.809920         1.526913        -1.904348
