19
Iteration:  2199charge 0 multiplicity 1
 O        -0.517610         0.094380         0.252065
 C        -1.778423         0.861683         0.226131
 C        -3.202754         0.349909        -0.026200
 C        -3.345138         1.833725        -0.073628
 C        -2.463878         1.957076         1.252443
 C        -1.753365         3.309969         1.512934
 C        -0.857933         3.627787         0.293438
 O        -1.311233         3.026671        -0.954291
 C        -2.077737         1.889639        -0.966476
 H        -0.454114        -0.443719         1.074879
 H        -3.407572        -0.326862        -0.944271
 H        -3.851377        -0.197831         0.763425
 H        -4.344812         2.355273        -0.335880
 H        -3.060225         1.570823         2.101421
 H        -2.574256         3.991577         1.585346
 H        -1.207326         3.340830         2.537840
 H        -0.757120         4.665922         0.042450
 H         0.272253         3.298793         0.436978
 H        -2.191382         1.575086        -1.953352
