19
Iteration:  3475charge 0 multiplicity 1
 O        -0.669617         0.070743         0.493208
 C        -1.774991         0.789553         0.222143
 C        -3.165081         0.306307        -0.177291
 C        -3.384943         1.833567        -0.199087
 C        -2.439921         1.931978         1.222151
 C        -1.630794         3.155906         1.571112
 C        -0.939037         3.672298         0.333243
 O        -1.305517         3.168794        -0.984649
 C        -2.064236         1.961500        -0.925840
 H         0.122449         0.134796        -0.157116
 H        -3.321979        -0.181424        -1.204665
 H        -3.640640        -0.268241         0.706255
 H        -4.393218         2.314674        -0.557009
 H        -2.894457         1.436664         2.123251
 H        -2.329356         3.882514         1.957931
 H        -0.836212         2.981255         2.286866
 H        -1.109981         4.736726         0.271344
 H         0.108069         3.448034         0.540711
 H        -1.914430         1.593276        -1.952502
