19
Iteration:   736
 O        -0.612435         0.275658         0.375049
 C        -1.823237         0.844714         0.276987
 C        -3.288948         0.310087         0.097560
 C        -3.374859         1.814431        -0.111130
 C        -2.483054         1.942995         1.188693
 C        -1.677466         3.257327         1.435004
 C        -0.721710         3.469867         0.264880
 O        -1.292878         3.040968        -1.014993
 C        -2.102604         1.841671        -0.945374
 H         0.135084         0.816118         0.194866
 H        -3.537023        -0.129400        -0.836983
 H        -3.812446        -0.097407         0.969745
 H        -4.283036         2.424625        -0.393953
 H        -3.020285         1.609198         2.024894
 H        -2.358925         4.064596         1.348156
 H        -1.248464         3.306383         2.481238
 H        -0.495660         4.498667         0.206850
 H         0.267356         2.992711         0.397450
 H        -2.096272         1.395044        -1.928808
