19
Iteration:  4447charge 0 multiplicity 1
 O        -0.577657         0.153703         0.232409
 C        -1.753219         0.849989         0.205550
 C        -3.100192         0.274616        -0.104732
 C        -3.390976         1.792110        -0.213219
 C        -2.619940         1.952634         1.145130
 C        -1.833566         3.204265         1.561325
 C        -0.789961         3.489478         0.437092
 O        -1.320046         3.200510        -0.817263
 C        -1.990182         1.940781        -0.903365
 H        -0.007079         0.833124         0.498831
 H        -3.197741        -0.240160        -1.095268
 H        -3.592491        -0.285162         0.736100
 H        -4.290554         2.245712        -0.624633
 H        -3.277029         1.394759         1.923164
 H        -2.486723         4.068699         1.746122
 H        -1.435378         2.925283         2.576219
 H        -0.478547         4.522192         0.249136
 H         0.120380         2.893149         0.505545
 H        -1.851909         1.654861        -1.986762
