19
Iteration:   483charge 0 multiplicity 1
 O        -0.635459         0.207804         0.780798
 C        -1.749152         0.911812         0.246493
 C        -3.116779         0.303073         0.013701
 C        -3.377061         1.826143        -0.092259
 C        -2.421701         1.914974         1.108356
 C        -1.624118         3.137792         1.322370
 C        -0.741675         3.402115         0.196558
 O        -1.456194         3.229072        -1.030404
 C        -2.191795         2.066906        -1.108423
 H        -0.733785        -0.731176         0.401310
 H        -3.217010        -0.381124        -0.880734
 H        -3.678791        -0.130569         0.874477
 H        -4.392448         2.227444        -0.267683
 H        -2.663229         1.441641         2.064129
 H        -2.080549         4.078736         1.629980
 H        -0.897514         2.815215         2.131153
 H        -0.472313         4.514667         0.333301
 H         0.005322         2.500995         0.270714
 H        -2.335723         1.662140        -2.094882
