19
Iteration:  1525
 O        -0.528922         0.170425         0.341882
 C        -1.705082         0.923521         0.352275
 C        -3.227632         0.326158        -0.095233
 C        -3.346241         1.881986        -0.119957
 C        -2.460065         1.973245         1.179115
 C        -1.766047         3.289569         1.445220
 C        -0.706092         3.340728         0.265495
 O        -1.511429         3.160299        -0.898946
 C        -2.072510         1.851733        -0.919155
 H        -0.617139        -0.511867         1.020004
 H        -3.176730        -0.157651        -1.111134
 H        -3.760991        -0.335882         0.630762
 H        -4.170790         2.611884        -0.293628
 H        -3.107970         1.586332         1.964347
 H        -2.464030         4.032588         1.291396
 H        -1.056407         3.585960         2.332734
 H        -0.370073         4.391322         0.093949
 H         0.109946         2.612486         0.324154
 H        -1.934665         1.580294        -1.926658
