19
Iteration:  4068
 O        -0.596631         0.176682         0.389320
 C        -1.753054         0.936398         0.187596
 C        -3.212497         0.272426        -0.185762
 C        -3.355368         1.771456        -0.091135
 C        -2.514311         1.869098         1.200603
 C        -1.720933         3.247760         1.517431
 C        -0.811383         3.542907         0.284707
 O        -1.348635         3.172346        -0.922064
 C        -2.010428         1.919237        -0.962480
 H        -0.483078        -0.134921         1.374264
 H        -3.216862        -0.123662        -1.219613
 H        -3.745061        -0.357688         0.562758
 H        -4.254509         2.422425        -0.230981
 H        -3.004412         1.434159         2.125107
 H        -2.359234         3.904999         2.070333
 H        -1.095506         2.858938         2.252871
 H        -0.756798         4.661281         0.226555
 H         0.223570         3.218441         0.600571
 H        -2.242555         1.550524        -1.953550
