19
Iteration:   191
 O        -0.703750         0.099748         0.485452
 C        -1.793136         0.900960         0.246862
 C        -3.173115         0.341218         0.057406
 C        -3.347593         1.898098        -0.005093
 C        -2.433197         2.004160         1.210302
 C        -1.722156         3.266398         1.409288
 C        -0.883234         3.497034         0.171418
 O        -1.244401         2.985193        -1.108108
 C        -2.058677         1.889579        -0.909066
 H         0.113027         0.598498         0.159804
 H        -3.426668        -0.253348        -0.792846
 H        -3.585712        -0.110875         0.945685
 H        -4.318609         2.527329        -0.268963
 H        -2.880978         1.631124         2.092068
 H        -2.409920         4.084069         1.559874
 H        -1.048801         3.243145         2.205076
 H        -0.923340         4.536842         0.057446
 H         0.169823         3.127140         0.450669
 H        -2.182648         1.404541        -1.915872
