19
Iteration:   633
 O        -0.731497        -0.003865         0.492937
 C        -1.814024         0.892061         0.216556
 C        -3.210394         0.330954         0.120761
 C        -3.288100         1.855837        -0.115817
 C        -2.358929         1.968221         1.171084
 C        -1.730980         3.253282         1.421535
 C        -0.877993         3.628174         0.153525
 O        -1.223052         3.047554        -1.047585
 C        -2.101089         1.918410        -0.940265
 H         0.166389         0.468889         0.529912
 H        -3.517231        -0.291200        -0.756014
 H        -3.594527        -0.079404         1.050009
 H        -4.195087         2.393293        -0.167865
 H        -2.822966         1.530212         2.103225
 H        -2.617719         3.977363         1.749919
 H        -0.981475         3.222370         2.248948
 H        -1.022308         4.794200         0.071526
 H         0.110101         3.368386         0.460066
 H        -2.270127         1.469399        -2.044360
