19
Iteration:  3609
 O        -0.583096         0.339292         0.377890
 C        -1.809913         0.866887         0.159510
 C        -3.105707         0.301001        -0.192492
 C        -3.405985         1.837431        -0.026989
 C        -2.556691         1.876182         1.217373
 C        -1.767419         3.134158         1.519499
 C        -0.712019         3.471498         0.376946
 O        -1.273252         3.108370        -1.019777
 C        -2.143827         1.959573        -0.914397
 H        -0.572196         0.069188         1.365544
 H        -3.257219        -0.176140        -1.240256
 H        -3.640150        -0.388649         0.454403
 H        -4.372564         2.101492        -0.277192
 H        -3.061046         1.416121         2.095324
 H        -2.440650         3.916992         1.614277
 H        -1.170115         3.199998         2.460483
 H        -0.478866         4.540858         0.312613
 H         0.250614         2.936280         0.466026
 H        -2.131004         1.593888        -1.956517
