19
Iteration:  4560
 O        -0.586411         0.168872         0.497930
 C        -1.746838         0.894275         0.150555
 C        -3.141654         0.293131        -0.294943
 C        -3.379595         1.793649        -0.202193
 C        -2.525685         1.807824         1.124793
 C        -1.757838         3.134759         1.608338
 C        -0.881141         3.546631         0.498202
 O        -1.372145         3.264526        -0.905206
 C        -1.966548         1.983257        -0.982890
 H        -0.067903         0.169455        -0.425212
 H        -3.317585        -0.286819        -1.198080
 H        -3.614944        -0.087392         0.622525
 H        -4.321551         2.353624        -0.357941
 H        -2.906058         1.389695         2.101717
 H        -2.457666         3.931063         1.956530
 H        -1.201042         2.825685         2.518187
 H        -0.675223         4.615596         0.541509
 H        -0.008950         2.956040         0.658902
 H        -1.898463         1.488520        -2.016365
