19
Iteration:   601charge 0 multiplicity 1
 O        -0.597753         0.127641         0.342873
 C        -1.797511         0.823782         0.352121
 C        -3.372592         0.314921        -0.080282
 C        -3.407753         1.846546         0.044218
 C        -2.434157         2.021877         1.273125
 C        -1.749869         3.370820         1.402361
 C        -0.855868         3.663552         0.081409
 O        -1.093914         2.843535        -0.985633
 C        -2.080075         1.867188        -0.796549
 H        -0.138466         0.577701        -0.357570
 H        -3.446649        -0.037656        -1.124916
 H        -3.833040        -0.431184         0.546495
 H        -4.302019         2.399992        -0.126354
 H        -2.964603         1.689178         2.199462
 H        -2.585700         4.001933         1.807959
 H        -1.084693         3.259151         2.279403
 H        -0.935612         4.866954        -0.161396
 H         0.153446         3.641873         0.492801
 H        -2.011217         1.300830        -1.879238
