19
Iteration:  1508
 O        -0.536852         0.231413         0.375072
 C        -1.807523         0.819396         0.176382
 C        -3.208348         0.302941        -0.050268
 C        -3.343222         1.847374        -0.041969
 C        -2.481581         1.923769         1.278312
 C        -1.781306         3.307995         1.399079
 C        -0.727172         3.399243         0.314855
 O        -1.371830         3.182881        -0.998185
 C        -2.044566         1.923832        -0.907079
 H        -0.738702        -0.717319         0.597961
 H        -3.430582        -0.182655        -0.984461
 H        -3.680232        -0.092152         0.834743
 H        -4.246712         2.375200        -0.286381
 H        -2.835008         1.469589         2.230457
 H        -2.568016         4.182155         1.145458
 H        -1.480698         3.449514         2.402069
 H        -0.168254         4.355732         0.118881
 H        -0.007648         2.570298         0.515439
 H        -2.171711         1.402030        -1.933305
