19
Iteration:   121charge 0 multiplicity 1
 O        -0.661615         0.206382         0.759837
 C        -1.773489         0.884873         0.200935
 C        -3.193148         0.362814        -0.045684
 C        -3.389578         1.958308        -0.059113
 C        -2.425450         1.953474         1.217036
 C        -1.475545         3.060900         1.464598
 C        -0.992774         3.629819         0.095404
 O        -1.272573         3.016867        -1.195632
 C        -2.121755         1.895467        -0.975074
 H        -0.591926        -0.750189         0.474459
 H        -3.426750        -0.291906        -0.958375
 H        -3.590393        -0.132821         0.849048
 H        -4.276129         2.469293        -0.308895
 H        -2.928056         1.628195         2.214502
 H        -1.980938         3.834190         2.071210
 H        -0.652922         2.601129         2.085929
 H        -1.554717         4.646059         0.149564
 H         0.092830         3.707805         0.241442
 H        -2.275581         1.498461        -1.919623
