19
Iteration:  4866charge 0 multiplicity 1
 O        -0.674976         0.042468         0.453304
 C        -1.725564         0.924922         0.088655
 C        -2.985930         0.233609        -0.370665
 C        -3.327191         1.854956        -0.236174
 C        -2.515932         1.750662         1.165513
 C        -1.881713         3.105677         1.587913
 C        -0.915657         3.531102         0.536500
 O        -1.313667         3.367992        -0.788970
 C        -1.995379         2.086298        -0.991048
 H         0.150700         0.473368         0.032829
 H        -3.133249        -0.214592        -1.377861
 H        -3.409538        -0.540089         0.318088
 H        -4.255954         2.462085        -0.235582
 H        -3.025936         1.215086         1.987563
 H        -2.726102         3.809306         1.769444
 H        -1.393320         2.979521         2.609441
 H        -0.615975         4.580471         0.766457
 H        -0.055344         2.945407         0.821392
 H        -2.145892         1.607443        -1.982846
