19
Iteration:   835charge 0 multiplicity 1
 O        -0.701915         0.092403         0.594350
 C        -1.787800         0.929815         0.273774
 C        -3.126009         0.328679        -0.081962
 C        -3.349723         1.870387        -0.099706
 C        -2.427317         1.934023         1.195262
 C        -1.621001         3.222186         1.467209
 C        -0.826973         3.562811         0.177970
 O        -1.421772         3.157174        -1.073983
 C        -2.063449         1.884505        -0.869830
 H        -0.365753        -0.305709        -0.260507
 H        -3.159939        -0.113831        -1.059959
 H        -3.636204        -0.306566         0.653068
 H        -4.316184         2.320353        -0.372568
 H        -3.008988         1.588439         1.992516
 H        -2.266586         4.008754         1.914812
 H        -0.798928         2.942181         2.270014
 H        -0.570045         4.566344         0.154320
 H         0.042340         2.826780         0.233347
 H        -2.115680         1.423432        -1.891495
