19
Iteration:  1154charge 0 multiplicity 1
 O        -0.674551         0.147336         0.318147
 C        -1.834465         0.887261         0.283392
 C        -3.152184         0.244075        -0.023446
 C        -3.428294         1.867003        -0.047965
 C        -2.472775         1.953839         1.268355
 C        -1.709931         3.245400         1.403104
 C        -0.782150         3.551471         0.289648
 O        -1.205104         3.028521        -0.958683
 C        -2.100021         1.915325        -0.884085
 H        -0.247307         0.615172        -0.459991
 H        -3.091161        -0.279282        -0.996180
 H        -3.740142        -0.233966         0.739449
 H        -4.407312         2.241380        -0.335993
 H        -2.991376         1.713643         2.225039
 H        -2.477431         4.094402         1.430088
 H        -1.178248         3.488189         2.243225
 H        -0.809967         4.639064         0.112990
 H         0.190111         3.202868         0.496043
 H        -2.009473         1.449579        -1.963500
