19
Iteration:   399
 O        -0.735791         0.025173         0.360812
 C        -1.819154         0.904385         0.177250
 C        -3.156437         0.302184         0.092129
 C        -3.410093         1.811709         0.056909
 C        -2.404335         1.949294         1.182910
 C        -1.828106         3.403293         1.337617
 C        -0.783826         3.578890         0.218756
 O        -1.171381         3.037681        -0.996701
 C        -2.039560         1.907657        -0.921366
 H         0.011862         0.578401         0.544010
 H        -3.338953        -0.372809        -0.727763
 H        -3.459418        -0.233733         1.043585
 H        -4.476637         2.330567         0.063700
 H        -2.909439         1.460590         2.088950
 H        -2.742565         4.018331         1.149698
 H        -1.455962         3.612990         2.360054
 H        -0.412204         4.513506         0.074148
 H         0.021080         2.922921         0.512418
 H        -2.019768         1.593755        -1.965964
