19
Iteration:   501
 O        -0.669141         0.129736         0.812532
 C        -1.773207         0.857308         0.235134
 C        -3.123217         0.275631        -0.077342
 C        -3.351991         1.831146        -0.139173
 C        -2.415931         1.925047         1.189890
 C        -1.563366         3.227551         1.431240
 C        -0.690344         3.408005         0.086824
 O        -1.583898         3.334229        -1.057801
 C        -2.085558         1.965968        -0.977613
 H        -0.534834        -0.742175         0.314180
 H        -3.351325        -0.218326        -1.030750
 H        -3.519295        -0.229319         0.777440
 H        -4.222689         2.394466        -0.242070
 H        -3.084270         1.528531         1.974959
 H        -2.331866         3.995563         1.586683
 H        -1.063246         3.081319         2.374028
 H        -0.277367         4.522130        -0.000894
 H        -0.010103         2.517218        -0.014377
 H        -2.114947         1.578414        -2.087029
