19
Iteration:  4995
 O        -0.576465         0.143339         0.348515
 C        -1.688877         0.960044         0.071241
 C        -3.060645         0.376276        -0.421539
 C        -3.285593         1.824926        -0.122316
 C        -2.503453         1.689281         1.143847
 C        -2.039987         3.080524         1.577837
 C        -0.909794         3.498429         0.585693
 O        -1.271214         3.242373        -0.803944
 C        -1.986370         2.084842        -0.970123
 H        -0.368850         0.275509         1.270115
 H        -3.153339         0.087021        -1.489740
 H        -3.472584        -0.263648         0.384411
 H        -4.239317         2.380628        -0.318835
 H        -2.998868         1.114561         1.970691
 H        -2.970251         3.641049         1.651314
 H        -1.483899         3.081231         2.552135
 H        -0.639253         4.604590         0.828746
 H        -0.017168         2.820077         0.718423
 H        -1.987116         1.646952        -1.957603
