19
Iteration:  4458
 O        -0.569354         0.145825         0.303679
 C        -1.786193         0.939620         0.201058
 C        -3.197566         0.219723        -0.182550
 C        -3.388188         1.766106        -0.226670
 C        -2.561749         1.897882         1.144040
 C        -1.821019         3.209933         1.523652
 C        -0.781061         3.480764         0.474674
 O        -1.324178         3.243801        -0.859151
 C        -1.998345         1.954948        -0.878546
 H         0.288548         0.635423         0.056696
 H        -3.148204        -0.388155        -1.114426
 H        -3.668562        -0.339629         0.668289
 H        -4.346023         2.279071        -0.336607
 H        -2.951407         1.494576         2.150752
 H        -2.522038         4.051623         1.510250
 H        -1.259581         3.189492         2.510030
 H        -0.536524         4.529572         0.657218
 H         0.115418         2.935955         0.715858
 H        -1.866630         1.478233        -1.896561
