19
Iteration:  3909charge 0 multiplicity 1
 O        -0.624254         0.176029         0.475936
 C        -1.853971         0.802600         0.194230
 C        -3.229069         0.297407        -0.175048
 C        -3.406538         1.829387        -0.062934
 C        -2.484842         1.881326         1.204901
 C        -1.639545         3.172409         1.479707
 C        -0.923814         3.707865         0.299407
 O        -1.146608         3.061297        -0.964454
 C        -2.138540         1.896533        -0.935424
 H         0.102307         0.878543         0.197469
 H        -3.302006        -0.202673        -1.145615
 H        -3.622277        -0.444429         0.619532
 H        -4.298909         2.472055        -0.160879
 H        -2.922950         1.556574         2.128403
 H        -2.388675         3.827323         1.894923
 H        -0.951912         2.995389         2.373094
 H        -0.891817         4.772750         0.142937
 H         0.160003         3.418185         0.424550
 H        -2.031474         1.597303        -2.010147
