19
Iteration:   996
 O        -0.730703         0.009770         0.379631
 C        -1.769455         0.882340         0.292547
 C        -3.144312         0.301415        -0.119450
 C        -3.344034         1.820176        -0.057820
 C        -2.461934         2.009512         1.209937
 C        -1.596692         3.227568         1.430125
 C        -0.866699         3.714661         0.182261
 O        -1.307956         3.034000        -0.943004
 C        -2.084245         1.895472        -0.889551
 H         0.014462         0.301544         1.020631
 H        -3.334510        -0.233894        -1.031425
 H        -3.808901        -0.132880         0.645584
 H        -4.197035         2.496964        -0.191340
 H        -2.822516         1.444942         2.122795
 H        -2.218810         4.022305         1.814814
 H        -1.035916         3.039898         2.243043
 H        -1.214496         4.711388         0.074400
 H         0.202658         3.661888         0.255983
 H        -2.354865         1.489969        -1.816921
