19
Iteration:  2555charge 0 multiplicity 1
 O        -0.613388         0.148470         0.333673
 C        -1.728322         0.859539         0.124220
 C        -3.259862         0.299602        -0.090275
 C        -3.295251         1.878246        -0.113279
 C        -2.391714         1.880240         1.166488
 C        -1.725545         3.247044         1.551170
 C        -0.887993         3.668188         0.315653
 O        -1.335634         3.066910        -0.953793
 C        -2.062645         1.899172        -0.903930
 H        -0.580289        -0.134035         1.339439
 H        -3.396271        -0.460564        -0.962977
 H        -3.783076        -0.026986         0.824904
 H        -4.186182         2.433722        -0.137732
 H        -2.746482         1.287761         2.071564
 H        -2.645756         3.811303         1.790202
 H        -1.059217         3.096392         2.437171
 H        -0.691457         4.694621        -0.015965
 H         0.112556         3.332204         0.629696
 H        -2.216112         1.463053        -1.961769
