19
Iteration:  4319
 O        -0.594027         0.179363         0.359854
 C        -1.749566         0.861100         0.183015
 C        -3.232042         0.207509        -0.183649
 C        -3.405078         1.740621        -0.184943
 C        -2.480712         1.939674         1.186103
 C        -1.749170         3.262446         1.562758
 C        -0.803175         3.532624         0.387139
 O        -1.327626         3.161418        -0.890274
 C        -2.048290         1.960949        -0.922823
 H         0.152118         0.743313         0.662269
 H        -3.341005        -0.289203        -1.141741
 H        -3.823686        -0.388274         0.540139
 H        -4.278173         2.400043        -0.235525
 H        -2.898305         1.503992         2.024697
 H        -2.581128         3.956085         1.730976
 H        -1.184075         3.001355         2.449636
 H        -0.481811         4.565402         0.204193
 H         0.230291         3.065778         0.616212
 H        -2.030329         1.654667        -1.992684
