19
Iteration:  3505
 O        -0.607140         0.111842         0.508070
 C        -1.743746         0.786799         0.220344
 C        -3.210206         0.401905        -0.192881
 C        -3.318101         1.865297        -0.108631
 C        -2.355037         1.774055         1.204918
 C        -1.775932         3.097252         1.419931
 C        -0.925550         3.700742         0.307759
 O        -1.312376         3.175834        -0.946998
 C        -2.050346         1.982819        -0.927248
 H        -0.698868        -0.839986         0.395252
 H        -3.502083        -0.006061        -1.121043
 H        -3.678224        -0.146798         0.655784
 H        -4.303643         2.491467        -0.215790
 H        -2.726423         1.218475         2.102576
 H        -2.626376         3.796616         1.778613
 H        -1.096968         3.142856         2.253925
 H        -1.009231         4.841203         0.200650
 H         0.172835         3.515109         0.570411
 H        -1.862949         1.804596        -1.982271
