19
Iteration:  3726charge 0 multiplicity 1
 O        -0.581433         0.193981         0.451717
 C        -1.807428         0.881855         0.159812
 C        -3.181706         0.317048        -0.059159
 C        -3.387715         1.857953        -0.085339
 C        -2.470047         1.891374         1.176248
 C        -1.801281         3.223697         1.510525
 C        -0.836741         3.454347         0.335337
 O        -1.282246         3.149814        -0.961288
 C        -2.004134         1.903314        -0.975765
 H        -0.070270         0.493338        -0.318647
 H        -3.382376        -0.244283        -0.940589
 H        -3.636333        -0.180597         0.830233
 H        -4.316457         2.316847        -0.421020
 H        -2.866471         1.325171         2.030865
 H        -2.676387         3.992019         1.605615
 H        -1.266227         3.218631         2.459753
 H        -0.712122         4.517451         0.507570
 H         0.159842         2.913638         0.383719
 H        -2.139088         1.519212        -2.016116
