19
Iteration:  2790charge 0 multiplicity 1
 O        -0.499423         0.125145         0.531850
 C        -1.768121         0.868590         0.167637
 C        -3.254610         0.264295        -0.153768
 C        -3.354149         1.832559        -0.134764
 C        -2.446056         1.910921         1.185384
 C        -1.680736         3.222819         1.495053
 C        -0.804893         3.513450         0.320476
 O        -1.496122         3.279750        -0.984758
 C        -2.034482         1.922282        -0.949654
 H        -0.656767        -0.788933         0.457826
 H        -3.488159        -0.370319        -0.983793
 H        -3.578101        -0.079091         0.815151
 H        -4.125712         2.500275        -0.339820
 H        -2.858184         1.331475         2.050761
 H        -2.361954         4.109149         1.724837
 H        -1.035664         3.016139         2.319664
 H        -0.539633         4.548395         0.339110
 H         0.106377         2.937976         0.417081
 H        -2.014742         1.632983        -2.014340
