19
Iteration:  4254
 O        -0.630382         0.161194         0.316095
 C        -1.756474         0.827522         0.119026
 C        -3.183967         0.260814        -0.128734
 C        -3.237831         1.808539        -0.142264
 C        -2.458785         1.926261         1.129130
 C        -1.807477         3.278695         1.529861
 C        -0.792420         3.549594         0.377042
 O        -1.450641         3.182574        -0.830010
 C        -1.971162         1.880514        -0.920089
 H        -0.523236        -0.034714         1.330367
 H        -3.310540        -0.254425        -1.091301
 H        -3.663633        -0.169417         0.783419
 H        -4.198620         2.311423        -0.314383
 H        -2.985264         1.560340         2.003154
 H        -2.439599         4.200471         1.514008
 H        -1.402757         3.192842         2.532187
 H        -0.445963         4.581574         0.203743
 H         0.159344         2.944532         0.356751
 H        -1.993301         1.511192        -1.963583
