19
Iteration:  1101charge 0 multiplicity 1
 O        -0.660743         0.027313         0.323642
 C        -1.691454         0.926434         0.199440
 C        -3.214806         0.302366         0.010985
 C        -3.316757         1.858821        -0.037274
 C        -2.433223         1.907237         1.224894
 C        -1.854482         3.328406         1.421150
 C        -0.704056         3.462926         0.293088
 O        -1.371864         3.145779        -1.009802
 C        -2.098387         1.949218        -0.897590
 H         0.015195         0.519266         0.893153
 H        -3.328200        -0.393974        -0.865115
 H        -3.676092        -0.142932         0.917042
 H        -4.236175         2.380118        -0.130321
 H        -2.762776         1.485190         2.175289
 H        -2.597945         4.099720         1.112231
 H        -1.462463         3.473971         2.365968
 H        -0.104927         4.426383         0.114950
 H         0.098451         2.738042         0.474982
 H        -2.265396         1.542690        -1.957317
