19
Iteration:  1692charge 0 multiplicity 1
 O        -0.555666         0.149680         0.429717
 C        -1.738280         0.891644         0.254641
 C        -3.205116         0.310180        -0.111687
 C        -3.394288         1.863444        -0.007637
 C        -2.496961         1.928528         1.263280
 C        -1.750059         3.251667         1.438899
 C        -0.754702         3.461758         0.239386
 O        -1.402635         3.180179        -1.042873
 C        -2.061395         1.940398        -0.894654
 H        -0.487299        -0.781345         0.419344
 H        -3.285713         0.022797        -1.172012
 H        -3.518306        -0.413969         0.665253
 H        -4.373240         2.260500        -0.225975
 H        -2.930631         1.525892         2.187997
 H        -2.515178         3.942959         1.420140
 H        -1.208941         3.377014         2.469422
 H        -0.287401         4.547458         0.075900
 H         0.099771         2.767167         0.344550
 H        -1.948580         1.437652        -1.855714
