19
Iteration:  3140
 O        -0.705475         0.105899         0.489058
 C        -1.784245         0.886562         0.212487
 C        -3.139276         0.262613        -0.100503
 C        -3.381653         1.740752        -0.010046
 C        -2.526965         1.922295         1.192093
 C        -1.620822         3.110363         1.437666
 C        -0.821469         3.655919         0.243044
 O        -1.332863         3.234490        -1.006424
 C        -2.036579         1.945526        -0.866596
 H        -0.057844         0.415441        -0.226644
 H        -3.359811        -0.117413        -1.184737
 H        -3.572632        -0.371106         0.702851
 H        -4.401745         2.252202        -0.051277
 H        -2.934126         1.388623         2.144821
 H        -2.358206         3.897238         1.588319
 H        -1.008638         3.007524         2.326885
 H        -0.634863         4.712650         0.062960
 H         0.189660         3.216677         0.294245
 H        -2.116829         1.589873        -1.966237
