19
Iteration:  2023charge 0 multiplicity 1
 O        -0.595043         0.055891         0.277530
 C        -1.751670         0.828050         0.172568
 C        -3.223659         0.301459        -0.006494
 C        -3.371117         1.840533        -0.067168
 C        -2.419497         1.934219         1.221173
 C        -1.746917         3.299134         1.514247
 C        -0.913270         3.744292         0.211697
 O        -1.224857         3.055830        -0.930346
 C        -2.041871         1.864809        -0.944830
 H        -0.640273        -0.560412         1.124283
 H        -3.700082        -0.362284        -0.765824
 H        -3.643623        -0.082357         0.940141
 H        -4.345631         2.431512        -0.066561
 H        -3.092101         1.533530         2.017302
 H        -2.533911         3.930272         1.832046
 H        -1.015316         3.385712         2.396174
 H        -1.011558         4.748884        -0.115581
 H         0.135594         3.719693         0.424791
 H        -2.004765         1.439483        -1.862707
