19
Iteration:  4525
 O        -0.620242         0.132498         0.307389
 C        -1.784023         0.855569         0.178423
 C        -3.047236         0.242504        -0.244731
 C        -3.373212         1.813338        -0.234298
 C        -2.564908         1.910125         1.153509
 C        -1.764253         3.121236         1.546501
 C        -0.826732         3.583169         0.483963
 O        -1.406064         3.247913        -0.866417
 C        -1.951527         1.940968        -0.888580
 H        -0.220111         0.300352         1.267547
 H        -3.286103        -0.440390        -1.061085
 H        -3.701998        -0.120117         0.588374
 H        -4.247831         2.501752        -0.374499
 H        -3.180073         1.388148         2.020146
 H        -2.483724         3.898856         1.810858
 H        -1.087756         2.927569         2.431492
 H        -0.655558         4.657670         0.502961
 H         0.155292         3.194918         0.481139
 H        -1.727654         1.728321        -1.963641
