19
Iteration:  3608charge 0 multiplicity 1
 O        -0.578975         0.339184         0.377088
 C        -1.814250         0.880221         0.166100
 C        -3.103455         0.295678        -0.195347
 C        -3.402554         1.844546        -0.031231
 C        -2.549249         1.864826         1.217342
 C        -1.767401         3.141829         1.519630
 C        -0.713311         3.462645         0.378023
 O        -1.268339         3.111254        -1.020222
 C        -2.156098         1.953328        -0.921872
 H        -0.575146         0.097224         1.374553
 H        -3.270338        -0.172600        -1.205369
 H        -3.626876        -0.393168         0.442870
 H        -4.393408         2.121625        -0.258100
 H        -3.063694         1.395858         2.088317
 H        -2.459402         3.934634         1.623377
 H        -1.209805         3.183454         2.473353
 H        -0.473158         4.507167         0.281622
 H         0.272548         2.934371         0.506359
 H        -2.160637         1.601005        -1.931381
