19
Iteration:  3467charge 0 multiplicity 1
 O        -0.656269         0.026532         0.456605
 C        -1.795112         0.887135         0.280205
 C        -3.111038         0.331382        -0.131802
 C        -3.383187         1.832349        -0.199916
 C        -2.493465         1.854355         1.197463
 C        -1.644315         3.171733         1.562310
 C        -0.903941         3.667383         0.302489
 O        -1.317107         3.148872        -0.931342
 C        -2.062806         1.993309        -0.990451
 H         0.004930         0.648186        -0.030969
 H        -3.210148        -0.236433        -1.101183
 H        -3.706798        -0.167585         0.617058
 H        -4.268711         2.232419        -0.553795
 H        -2.998493         1.498213         2.085417
 H        -2.264804         3.880465         2.057771
 H        -0.922009         2.683479         2.298757
 H        -0.980029         4.720127         0.102868
 H         0.150925         3.446171         0.462104
 H        -2.103760         1.360064        -1.876729
