19
Iteration:  1058
 O        -0.573787         0.141475         0.541926
 C        -1.852626         0.835129         0.210145
 C        -3.237508         0.322783        -0.123640
 C        -3.406494         1.889319        -0.072802
 C        -2.436960         1.902910         1.152682
 C        -1.552893         3.140469         1.523675
 C        -0.824771         3.632869         0.227281
 O        -1.415971         3.127276        -1.054288
 C        -2.083000         1.834312        -0.956732
 H        -0.296463         0.612080         1.414839
 H        -3.459618        -0.189700        -1.102847
 H        -3.869283         0.020248         0.726551
 H        -4.210600         2.503050        -0.357127
 H        -2.749327         1.422179         2.079312
 H        -2.075862         4.004195         2.058993
 H        -0.689324         2.740427         2.280627
 H        -0.795796         4.795763         0.079029
 H         0.271210         3.235511         0.218075
 H        -2.159182         1.582772        -2.027638
