19
Iteration:   889
 O        -0.550898         0.430498         0.602218
 C        -1.833395         0.954893         0.149458
 C        -3.260824         0.296400        -0.019296
 C        -3.378527         1.850033        -0.044638
 C        -2.444274         1.908371         1.127621
 C        -1.656574         3.180689         1.451880
 C        -0.726079         3.272859         0.286849
 O        -1.436721         3.132003        -1.005529
 C        -2.079552         1.893679        -1.050096
 H        -0.334419        -0.492381         0.228159
 H        -3.455611        -0.169071        -0.957308
 H        -3.774134        -0.133676         0.845980
 H        -4.322631         2.433964        -0.120702
 H        -2.862189         1.363428         1.962376
 H        -2.223554         4.106430         1.681551
 H        -0.981882         2.871204         2.315585
 H        -0.386537         4.286954         0.294128
 H         0.196277         2.649896         0.225965
 H        -2.102576         1.540530        -2.135907
