19
Iteration:  1774charge 0 multiplicity 1
 O        -0.612817         0.209652         0.527290
 C        -1.755751         0.927073         0.221458
 C        -3.230767         0.291252        -0.127459
 C        -3.400809         1.906297        -0.022819
 C        -2.468458         1.886331         1.202400
 C        -1.658952         3.232215         1.466570
 C        -0.776078         3.487210         0.242249
 O        -1.368722         3.082452        -0.996945
 C        -2.114802         1.881763        -0.939169
 H         0.117904         0.258899        -0.172117
 H        -3.194504        -0.296579        -1.024479
 H        -3.639294        -0.345193         0.620854
 H        -4.359097         2.461390         0.055223
 H        -2.805098         1.269292         2.044711
 H        -2.494283         4.055078         1.552521
 H        -1.057738         3.226733         2.313409
 H        -0.673782         4.488441         0.036522
 H         0.225246         3.030149         0.353860
 H        -2.148597         1.559998        -2.073130
