19
Iteration:  2803charge 0 multiplicity 1
 O        -0.536436         0.222255         0.529193
 C        -1.653581         0.871768         0.205706
 C        -3.285571         0.288977        -0.109389
 C        -3.367353         1.810142        -0.100533
 C        -2.394746         1.865411         1.171013
 C        -1.732173         3.212567         1.518195
 C        -0.837495         3.511379         0.269769
 O        -1.397428         3.200470        -0.946848
 C        -2.096468         1.972099        -1.017227
 H        -0.739218        -0.773445         0.294130
 H        -3.383322         0.096993        -1.194862
 H        -3.829973        -0.402145         0.444836
 H        -4.370943         2.227889        -0.274543
 H        -2.922534         1.492340         2.167124
 H        -2.482864         3.971220         1.858335
 H        -1.039180         3.150632         2.377549
 H        -0.256411         4.532136         0.147251
 H        -0.010627         2.726773         0.347112
 H        -2.206514         1.563299        -2.025503
