19
Iteration:   173
 O        -0.635865         0.218923         0.588892
 C        -1.849680         0.894261         0.253444
 C        -3.307051         0.303450         0.079208
 C        -3.442715         1.827547        -0.146608
 C        -2.496673         1.949695         1.120250
 C        -1.536106         3.186754         1.412811
 C        -0.732196         3.702759         0.160215
 O        -1.274348         2.968795        -1.011752
 C        -2.125825         1.833717        -0.942387
 H        -0.033102         0.472571        -0.194598
 H        -3.398573        -0.312194        -0.820411
 H        -3.788920        -0.166511         1.022537
 H        -4.326919         2.310762        -0.256058
 H        -2.872633         1.454861         2.065818
 H        -2.211432         3.972057         1.870425
 H        -0.883881         2.844881         2.302485
 H        -0.797570         4.821315        -0.037364
 H         0.296263         3.494923         0.276457
 H        -2.136259         1.447216        -1.998067
