19
Iteration:  1974
 O        -0.588198         0.104693         0.356592
 C        -1.767982         0.800493         0.201288
 C        -3.171393         0.343354        -0.041631
 C        -3.297950         1.870290         0.058417
 C        -2.449082         1.912484         1.261364
 C        -1.800644         3.275969         1.357340
 C        -0.873300         3.571354         0.264769
 O        -1.345261         3.122550        -1.036750
 C        -1.991962         1.944906        -0.874729
 H        -0.646984        -0.694985         0.827031
 H        -3.421762        -0.199527        -0.990163
 H        -3.727386        -0.264783         0.725657
 H        -4.266620         2.284014        -0.092294
 H        -2.896058         1.402991         2.175169
 H        -2.493578         4.186616         1.399072
 H        -1.344470         3.373712         2.341382
 H        -0.564369         4.676338         0.098801
 H         0.181872         3.191820         0.309998
 H        -2.248273         1.510030        -1.933542
