19
Iteration:  2184
 O        -0.529462         0.220201         0.252937
 C        -1.812124         0.805911         0.112080
 C        -3.249216         0.270284         0.003910
 C        -3.351117         1.853641        -0.008806
 C        -2.489605         1.965340         1.194838
 C        -1.812706         3.302583         1.420484
 C        -0.827086         3.580061         0.312177
 O        -1.229102         3.055413        -0.976558
 C        -2.075096         1.858442        -0.827580
 H        -0.539104        -0.498872         0.992982
 H        -3.564649        -0.261087        -0.902600
 H        -3.604213        -0.201813         0.901006
 H        -4.240179         2.404462        -0.211543
 H        -2.774299         1.419335         2.087633
 H        -2.503556         4.121123         1.630041
 H        -1.204992         3.267804         2.314211
 H        -0.708603         4.676556         0.129532
 H         0.110851         3.202774         0.751474
 H        -2.021617         1.552259        -1.906792
