19
Iteration:     4
 O        -0.703554         0.045545         0.497285
 C        -1.831835         0.819976         0.286328
 C        -3.286913         0.391852         0.066275
 C        -3.295908         1.954580        -0.046753
 C        -2.365380         1.977399         1.227450
 C        -1.435046         3.190513         1.362173
 C        -1.273626         3.911508         0.033186
 O        -1.098227         2.846200        -1.017434
 C        -1.999800         1.806731        -0.903133
 H        -0.721523        -0.454093         1.369217
 H        -3.497018        -0.132377        -0.884629
 H        -3.807410        -0.039842         0.877115
 H        -4.184000         2.700713        -0.312842
 H        -2.798956         1.645319         2.120700
 H        -1.845994         3.924997         2.063644
 H        -0.460261         2.903163         1.724778
 H        -2.144339         4.423601        -0.251026
 H        -0.320895         4.501100        -0.003655
 H        -2.114510         1.342613        -1.983447
