19
Iteration:  4276charge 0 multiplicity 1
 O        -0.456582         0.096264         0.401111
 C        -1.753889         0.893629         0.192337
 C        -3.304204         0.309516        -0.185920
 C        -3.382708         1.838453        -0.054423
 C        -2.440447         1.813468         1.202641
 C        -1.838053         3.196013         1.445734
 C        -0.826179         3.544230         0.364561
 O        -1.288386         3.211569        -0.939939
 C        -2.088884         1.981605        -0.943018
 H        -0.274956         0.313215         1.289684
 H        -3.304375        -0.137661        -1.178035
 H        -3.724595        -0.349544         0.602140
 H        -4.304430         2.373582        -0.313054
 H        -2.915714         1.327828         2.020868
 H        -2.676925         3.946563         1.396537
 H        -1.324620         3.332136         2.399388
 H        -0.442892         4.563212         0.453815
 H         0.065775         2.903292         0.363328
 H        -2.155945         1.605682        -1.975247
