19
Iteration:  1540charge 0 multiplicity 1
 O        -0.576063         0.163520         0.389478
 C        -1.807406         0.892416         0.201172
 C        -3.150713         0.322888        -0.072030
 C        -3.372810         1.805922        -0.115233
 C        -2.515027         1.989140         1.183789
 C        -1.662649         3.261180         1.418368
 C        -0.745015         3.467625         0.268500
 O        -1.468491         3.161432        -0.933047
 C        -2.029532         1.903214        -0.886191
 H        -0.546433        -0.247657         1.237223
 H        -3.275324        -0.197412        -0.996380
 H        -3.720005        -0.174590         0.688777
 H        -4.296917         2.216037        -0.411806
 H        -2.833864         1.621384         2.165090
 H        -2.272505         4.200769         1.737583
 H        -1.275165         2.903741         2.319784
 H        -0.197619         4.443885         0.208473
 H         0.030557         2.679677         0.357764
 H        -2.101048         1.380579        -1.891385
