19
Iteration:  3611charge 0 multiplicity 1
 O        -0.588534         0.336909         0.382599
 C        -1.801526         0.846738         0.149389
 C        -3.115366         0.305863        -0.190740
 C        -3.409621         1.821032        -0.022552
 C        -2.568969         1.895457         1.218247
 C        -1.761350         3.119054         1.517379
 C        -0.713191         3.487450         0.372027
 O        -1.282921         3.103494        -1.014821
 C        -2.115466         1.972588        -0.902175
 H        -0.562529         0.023686         1.299023
 H        -3.221264        -0.154785        -1.272235
 H        -3.666112        -0.379028         0.497414
 H        -4.392994         2.103163        -0.318405
 H        -3.045684         1.452851         2.105573
 H        -2.446097         3.938568         1.598400
 H        -1.107617         3.209744         2.429842
 H        -0.496586         4.600788         0.372154
 H         0.204514         2.933095         0.395783
 H        -2.090559         1.579873        -1.991562
