19
Iteration:  4352charge 0 multiplicity 1
 O        -0.643892         0.125467         0.428138
 C        -1.738597         0.889746         0.196061
 C        -3.112945         0.209265        -0.092985
 C        -3.321066         1.822422        -0.181742
 C        -2.518557         1.910249         1.161454
 C        -1.814763         3.164056         1.540756
 C        -0.850050         3.458609         0.383250
 O        -1.408811         3.297720        -0.940297
 C        -1.945780         1.981545        -0.937153
 H         0.073380         0.104687        -0.315691
 H        -3.301792        -0.294067        -1.011809
 H        -3.584276        -0.217823         0.791162
 H        -4.012533         2.651960        -0.376078
 H        -3.030891         1.493522         1.959035
 H        -2.579953         3.882817         1.837358
 H        -1.195289         3.170254         2.437052
 H        -0.612539         4.516501         0.419405
 H         0.020224         2.773407         0.324468
 H        -1.913595         1.646418        -1.997569
