19
Iteration:  3564
 O        -0.539311         0.194435         0.251537
 C        -1.780821         0.857191         0.223984
 C        -3.202503         0.221830        -0.066866
 C        -3.363979         1.826235        -0.188537
 C        -2.550606         1.915394         1.194735
 C        -1.868264         3.250277         1.488882
 C        -0.652346         3.463000         0.405234
 O        -1.360130         3.210555        -0.872701
 C        -2.060731         1.926677        -0.954988
 H         0.041141         0.163428         1.088614
 H        -3.354300        -0.337129        -1.055199
 H        -3.694535        -0.264587         0.800960
 H        -4.133622         2.529626        -0.211988
 H        -3.040059         1.455472         2.075968
 H        -2.483715         4.067337         1.275319
 H        -1.579621         3.315276         2.545699
 H        -0.352936         4.476989         0.486207
 H         0.197795         2.778938         0.364835
 H        -2.055172         1.536703        -1.963649
