19
Iteration:    96charge 0 multiplicity 1
 O        -0.737907         0.040825         0.661744
 C        -1.809450         0.762107         0.292913
 C        -3.283697         0.312862        -0.001713
 C        -3.367895         1.856499        -0.069395
 C        -2.307468         1.907976         1.124046
 C        -1.499629         3.233963         1.368970
 C        -1.003651         3.925174         0.050386
 O        -1.231353         3.036608        -1.043713
 C        -2.034171         1.862418        -0.878576
 H        -0.696892        -0.778449         0.147563
 H        -3.463437        -0.255178        -0.916104
 H        -3.953380        -0.112499         0.856625
 H        -4.186972         2.473325        -0.265989
 H        -2.731923         1.663153         2.176531
 H        -2.159299         3.808772         2.058088
 H        -0.622293         2.843715         1.989092
 H        -1.582466         4.901777        -0.056993
 H         0.041250         4.100435         0.121696
 H        -2.056286         1.505295        -1.928953
