19
Iteration:   289
 O        -0.584681         0.266246         0.579834
 C        -1.863987         0.848254         0.303736
 C        -3.284359         0.360613        -0.102839
 C        -3.341876         1.909240        -0.093326
 C        -2.473384         1.954336         1.237148
 C        -1.569100         3.164916         1.450210
 C        -0.778118         3.469192         0.133623
 O        -1.401859         3.001599        -1.097518
 C        -2.067798         1.822660        -0.892384
 H        -0.009297         1.064292         0.415828
 H        -3.397374        -0.205239        -1.032294
 H        -3.777788        -0.089692         0.775073
 H        -4.397612         2.508765        -0.062975
 H        -3.035894         1.659921         2.173330
 H        -2.102549         4.099787         1.559594
 H        -0.946290         3.113941         2.325127
 H        -0.835078         4.515448         0.111878
 H         0.311239         3.215090         0.088771
 H        -2.080926         1.199187        -1.800412
