19
Iteration:  1943charge 0 multiplicity 1
 O        -0.585559         0.279331         0.444403
 C        -1.779522         0.896240         0.149308
 C        -3.166106         0.263390        -0.013351
 C        -3.423268         1.767726        -0.110200
 C        -2.453285         1.932543         1.195601
 C        -1.664942         3.284678         1.464595
 C        -0.708102         3.386193         0.301888
 O        -1.452272         3.179774        -0.977757
 C        -2.092334         1.948034        -0.968842
 H        -0.546134        -0.583157         0.975041
 H        -3.199044        -0.297736        -1.002847
 H        -3.734880        -0.066916         0.917554
 H        -4.470087         2.043275        -0.230425
 H        -2.858567         1.522624         2.186012
 H        -2.344441         4.157186         1.472705
 H        -0.983978         3.296151         2.399244
 H        -0.364354         4.407821        -0.095992
 H         0.079000         2.625984         0.323396
 H        -2.120050         1.540969        -1.937449
