19
Iteration:  3256
 O        -0.593358         0.026908         0.341137
 C        -1.775704         0.873597         0.220835
 C        -3.247362         0.336647         0.013046
 C        -3.300988         1.830133        -0.169962
 C        -2.419476         1.901198         1.207888
 C        -1.748211         3.187825         1.511807
 C        -0.808589         3.582011         0.327764
 O        -1.442934         3.227974        -0.981287
 C        -2.051691         1.853237        -0.978530
 H        -0.019674         0.634320         0.834808
 H        -3.253686        -0.288214        -0.877944
 H        -3.718883        -0.114057         0.946642
 H        -4.106839         2.686265        -0.282747
 H        -2.715760         1.377136         2.090520
 H        -2.532456         3.964769         1.540062
 H        -1.072722         3.197719         2.413789
 H        -0.646684         4.682344         0.390781
 H         0.319666         3.186571         0.283600
 H        -2.051764         1.538121        -1.993713
