19
Iteration:  4968charge 0 multiplicity 1
 O        -0.452697         0.208787         0.300794
 C        -1.772732         0.827898         0.141636
 C        -3.126230         0.270686        -0.466479
 C        -3.348269         1.769058        -0.203834
 C        -2.575934         1.756480         1.192681
 C        -1.952504         3.155098         1.558465
 C        -0.771625         3.517705         0.620913
 O        -1.331792         3.297229        -0.752012
 C        -2.008214         2.097842        -0.933588
 H        -0.582484        -0.284311         1.093587
 H        -3.059957         0.024043        -1.516088
 H        -3.603843        -0.403030         0.210317
 H        -4.232953         2.337293        -0.455968
 H        -3.207219         1.355915         2.030046
 H        -2.831190         3.816593         1.421338
 H        -1.570407         3.216240         2.566446
 H        -0.474398         4.489733         0.858362
 H         0.048972         2.768621         0.687601
 H        -1.857542         1.581874        -1.890901
