19
Iteration:  2516
 O        -0.564279         0.160346         0.286676
 C        -1.748372         0.815745         0.228969
 C        -3.130761         0.240902        -0.159534
 C        -3.394185         1.785452         0.022670
 C        -2.501428         1.950785         1.300229
 C        -1.840401         3.318508         1.432321
 C        -0.738179         3.516877         0.243675
 O        -1.325613         3.162790        -0.982093
 C        -2.055157         1.982606        -0.826513
 H        -0.752273        -0.696264         0.609111
 H        -3.234705        -0.291754        -1.085503
 H        -3.676001        -0.179564         0.720343
 H        -4.304982         2.497328        -0.316089
 H        -2.919629         1.502603         2.217003
 H        -2.557296         4.197208         1.408907
 H        -1.443985         3.309118         2.497826
 H        -0.361261         4.562197         0.282685
 H         0.082000         2.752630         0.413141
 H        -2.281731         1.577219        -1.822807
