19
Iteration:  4267
 O        -0.494232         0.128926         0.384168
 C        -1.780839         0.742174         0.145576
 C        -3.234765         0.294829        -0.173843
 C        -3.379109         1.840765        -0.090237
 C        -2.458002         1.860110         1.193713
 C        -1.808710         3.295134         1.465680
 C        -0.779363         3.532062         0.411980
 O        -1.386248         3.227955        -0.942922
 C        -2.011595         1.930242        -0.948385
 H        -0.311527         0.255475         1.293511
 H        -3.562116        -0.145669        -1.148368
 H        -3.773560        -0.295643         0.632561
 H        -4.209973         2.560304        -0.256868
 H        -2.829264         1.276238         2.102086
 H        -2.709536         3.940992         1.489565
 H        -1.270629         3.278264         2.393156
 H        -0.465983         4.598760         0.349126
 H         0.087244         2.949357         0.712497
 H        -2.030816         1.653998        -1.983894
