19
Iteration:  2039
 O        -0.574007         0.125119         0.326184
 C        -1.812729         0.863433         0.257829
 C        -3.311168         0.320670        -0.008100
 C        -3.346884         1.827783        -0.059645
 C        -2.442756         1.866718         1.213137
 C        -1.713779         3.201201         1.464755
 C        -0.932100         3.718823         0.276302
 O        -1.221479         3.065069        -1.087137
 C        -2.016651         1.883540        -0.875701
 H        -0.574381        -0.377573         1.160392
 H        -3.313457        -0.158224        -0.981091
 H        -3.775597        -0.154538         0.856780
 H        -4.179623         2.452042        -0.314631
 H        -2.522811         1.553171         2.287092
 H        -2.503984         3.954303         1.858261
 H        -1.030882         3.135340         2.288081
 H        -1.088858         4.843736         0.144463
 H         0.208940         3.648316         0.413719
 H        -2.170820         1.594937        -2.067054
