19
Iteration:  2970
 O        -0.631445         0.103022         0.363284
 C        -1.786117         0.870745         0.239150
 C        -3.152496         0.243610        -0.071403
 C        -3.361123         1.838909        -0.101299
 C        -2.500228         1.913729         1.215282
 C        -1.617573         3.129457         1.470422
 C        -0.855346         3.618900         0.271137
 O        -1.389962         3.210984        -1.002566
 C        -2.060529         1.922287        -0.920395
 H        -0.299047         0.317869         1.306550
 H        -3.276348        -0.155285        -1.046625
 H        -3.494146        -0.382142         0.757106
 H        -4.071055         2.638498        -0.298948
 H        -3.138628         1.611200         2.153526
 H        -2.264279         3.910079         1.891387
 H        -1.109684         2.794488         2.414636
 H        -0.738086         4.729939         0.122019
 H         0.172309         3.289120         0.303808
 H        -2.037884         1.494590        -1.914486
