19
Iteration:  2787charge 0 multiplicity 1
 O        -0.510776         0.121576         0.523264
 C        -1.799592         0.866715         0.164586
 C        -3.222107         0.279072        -0.135752
 C        -3.336726         1.824598        -0.137053
 C        -2.471147         1.902706         1.171906
 C        -1.665070         3.211062         1.484065
 C        -0.802243         3.514497         0.310299
 O        -1.509680         3.283023        -0.977541
 C        -2.017517         1.935649        -0.934767
 H        -0.643955        -0.855369         0.470548
 H        -3.395278        -0.381064        -1.015967
 H        -3.569122         0.003516         0.914763
 H        -4.138338         2.559327        -0.321260
 H        -2.842981         1.383173         1.992199
 H        -2.394435         4.032959         1.678304
 H        -1.094832         2.983414         2.397681
 H        -0.546020         4.521808         0.324432
 H         0.156046         3.054932         0.437001
 H        -2.029550         1.547418        -1.985128
