19
Iteration:  4246
 O        -0.611091         0.125856         0.296117
 C        -1.760003         0.943153         0.205181
 C        -3.155894         0.273503        -0.094421
 C        -3.306044         1.794976        -0.178684
 C        -2.464195         1.964696         1.147644
 C        -1.769874         3.249319         1.512271
 C        -0.793578         3.534704         0.360157
 O        -1.438494         3.175016        -0.814783
 C        -1.992037         1.894755        -0.958583
 H        -0.675047        -0.274341         1.265298
 H        -3.168014        -0.368381        -1.005152
 H        -3.613099        -0.317702         0.746782
 H        -4.204413         2.318650        -0.553457
 H        -3.105993         1.394715         1.908867
 H        -2.570512         4.004478         1.497339
 H        -1.271232         3.159301         2.458718
 H        -0.509080         4.607951         0.358314
 H         0.134166         2.982558         0.365248
 H        -1.920077         1.549831        -1.964787
