19
Iteration:  3903charge 0 multiplicity 1
 O        -0.626560         0.148467         0.517897
 C        -1.844946         0.847450         0.109583
 C        -3.209165         0.308508        -0.146257
 C        -3.412522         1.880211        -0.057651
 C        -2.476453         1.817917         1.196948
 C        -1.618131         3.144964         1.515830
 C        -0.876841         3.755376         0.281590
 O        -1.182578         3.029775        -0.966813
 C        -2.135882         1.889352        -0.951811
 H        -0.108772         0.923313         0.323819
 H        -3.249327        -0.131907        -1.172302
 H        -3.549968        -0.368853         0.580397
 H        -4.342348         2.393816        -0.287217
 H        -2.897528         1.337328         2.139156
 H        -2.441784         3.866589         1.808096
 H        -1.097868         3.100056         2.452102
 H        -0.951922         4.868545         0.008570
 H         0.191672         3.645651         0.627092
 H        -2.312255         1.504069        -1.969513
