19
Iteration:   776
 O        -0.689187        -0.010366         0.350868
 C        -1.772380         0.913133         0.218300
 C        -3.195902         0.326910         0.042896
 C        -3.329800         1.829570         0.032605
 C        -2.421772         1.981079         1.290518
 C        -1.829986         3.377812         1.418517
 C        -0.795179         3.612961         0.263800
 O        -1.182191         2.994541        -1.021707
 C        -2.071468         1.891333        -0.930448
 H        -0.235628         0.249620        -0.516863
 H        -3.249521        -0.196007        -0.964487
 H        -3.732222        -0.347146         0.759852
 H        -4.300105         2.313956        -0.180263
 H        -3.005499         1.530920         2.188956
 H        -2.814511         3.989284         1.222612
 H        -1.320162         3.730097         2.318415
 H        -0.806609         4.753452        -0.027147
 H         0.182514         3.253237         0.613867
 H        -2.366609         1.497692        -2.005006
