19
Iteration:  4845charge 0 multiplicity 1
 O        -0.529979         0.038562         0.296363
 C        -1.650944         0.871280         0.128187
 C        -3.146829         0.332941        -0.235712
 C        -3.309045         1.848467        -0.266495
 C        -2.618225         1.822005         1.126134
 C        -1.926993         3.103071         1.641545
 C        -0.914158         3.511700         0.558051
 O        -1.357606         3.327247        -0.769700
 C        -1.894579         2.050890        -0.986117
 H         0.292608         0.493868         0.594607
 H        -3.101365        -0.167112        -1.215942
 H        -3.824796        -0.283057         0.359621
 H        -4.283046         2.173659        -0.670045
 H        -3.235754         1.466106         1.974799
 H        -2.714627         3.854338         1.860232
 H        -1.615983         2.744909         2.640858
 H        -0.558539         4.567867         0.453937
 H         0.067273         2.923189         0.700563
 H        -1.889161         1.619908        -2.007651
