19
Iteration:  3880charge 0 multiplicity 1
 O        -0.682413         0.056210         0.459641
 C        -1.752962         0.884931         0.199472
 C        -3.233775         0.349819        -0.111869
 C        -3.321030         1.832504        -0.064408
 C        -2.409542         1.869118         1.173289
 C        -1.699529         3.133825         1.469791
 C        -1.018567         3.646346         0.255580
 O        -1.194088         3.127002        -0.997514
 C        -2.063072         1.944854        -0.954250
 H        -0.010237         0.611282         0.913839
 H        -3.364394        -0.241528        -1.044911
 H        -3.636726        -0.150986         0.736862
 H        -4.161183         2.479226         0.006165
 H        -2.845356         1.499651         2.150643
 H        -2.445746         3.816525         1.928712
 H        -1.106197         2.940778         2.342103
 H        -1.122827         4.776311         0.161605
 H         0.133316         3.611657         0.467625
 H        -2.030702         1.506845        -1.971261
