19
Iteration:   536charge 0 multiplicity 1
 O        -0.653814         0.089951         0.612087
 C        -1.832965         0.857804         0.287477
 C        -3.211560         0.287685        -0.039746
 C        -3.366087         1.875048        -0.085007
 C        -2.441315         1.965873         1.178707
 C        -1.636315         3.250111         1.450025
 C        -0.770825         3.610724         0.107206
 O        -1.381966         3.092440        -1.041951
 C        -2.051144         1.871758        -0.905221
 H        -0.209148        -0.225826        -0.237508
 H        -3.375073        -0.193998        -1.027737
 H        -3.668117        -0.258036         0.774024
 H        -4.236984         2.432711        -0.344793
 H        -3.049778         1.786946         2.077875
 H        -2.265215         4.110478         1.579529
 H        -1.066126         3.119739         2.371422
 H        -0.618608         4.800349         0.059956
 H         0.322375         3.316024         0.310377
 H        -2.138469         1.287965        -1.894114
