19
Iteration:  2988
 O        -0.620899         0.182198         0.364670
 C        -1.771869         0.903957         0.198363
 C        -3.143969         0.265684        -0.116905
 C        -3.421550         1.841369        -0.098927
 C        -2.445068         1.953568         1.149547
 C        -1.642884         3.229695         1.519686
 C        -0.781371         3.576645         0.309248
 O        -1.390689         3.041064        -0.907923
 C        -2.143637         1.920484        -0.967233
 H        -0.235766         0.369951         1.301380
 H        -3.212520        -0.263410        -1.160080
 H        -3.726612        -0.172777         0.684396
 H        -4.536019         2.025863        -0.265429
 H        -2.688579         1.352062         2.003879
 H        -2.299381         4.084027         2.006205
 H        -0.926293         3.093453         2.347158
 H        -0.718701         4.707144         0.326720
 H         0.247166         3.056571         0.279043
 H        -2.114187         1.603592        -2.058404
