19
Iteration:  1418
 O        -0.768380         0.048359         0.579039
 C        -1.781668         0.824857         0.209633
 C        -3.181324         0.241703        -0.074580
 C        -3.320263         1.875311        -0.044412
 C        -2.392446         1.898358         1.160777
 C        -1.611788         3.194964         1.482777
 C        -0.904781         3.669239         0.231850
 O        -1.372950         3.162543        -1.053534
 C        -2.023274         1.958714        -0.993910
 H         0.050259         0.314673         0.202299
 H        -3.333056        -0.291399        -0.997514
 H        -3.595372        -0.263156         0.798069
 H        -4.171867         2.530202        -0.123544
 H        -2.804559         1.516073         2.110586
 H        -2.364437         3.861972         2.080052
 H        -0.803527         3.037587         2.209396
 H        -0.739379         4.801608         0.020947
 H         0.115022         3.282084         0.404586
 H        -2.110841         1.599740        -2.073509
