19
Iteration:  3024
 O        -0.514293         0.278613         0.301621
 C        -1.785453         0.859999         0.264894
 C        -3.164015         0.289121        -0.043768
 C        -3.334598         1.929201        -0.018228
 C        -2.488662         1.824535         1.242857
 C        -1.820345         3.163170         1.330609
 C        -0.799768         3.388746         0.328972
 O        -1.334348         3.175754        -0.987649
 C        -2.116154         1.977841        -0.932769
 H        -0.198794         0.060126         1.258762
 H        -3.462579        -0.134550        -0.954955
 H        -3.900394        -0.023033         0.662552
 H        -4.291588         2.400457         0.029083
 H        -2.745013         1.266453         2.211596
 H        -2.572770         4.022045         1.199128
 H        -1.455962         3.098715         2.381383
 H        -0.299033         4.401970         0.326323
 H         0.083296         2.668653         0.367668
 H        -2.064116         1.510984        -1.880785
