19
Iteration:   881
 O        -0.555784         0.461310         0.631931
 C        -1.824777         0.867110         0.199927
 C        -3.269566         0.336005        -0.014407
 C        -3.427701         1.799394        -0.110543
 C        -2.413526         1.907878         1.125530
 C        -1.616896         3.123014         1.450976
 C        -0.664670         3.367907         0.266847
 O        -1.438726         3.137011        -0.993032
 C        -2.139182         1.929474        -1.088920
 H        -0.371954        -0.511499         0.350420
 H        -3.495028        -0.257124        -0.949566
 H        -3.840777        -0.198719         0.759663
 H        -4.235793         2.461265        -0.369219
 H        -2.657352         1.443974         2.065360
 H        -2.293845         3.886623         1.853591
 H        -0.929484         2.842643         2.398560
 H        -0.340872         4.438473         0.093555
 H        -0.011330         2.446015         0.470521
 H        -2.234387         1.648536        -2.140734
