19
Iteration:  4016
 O        -0.492244         0.256757         0.487728
 C        -1.773958         0.948730         0.148627
 C        -3.200137         0.284327        -0.166840
 C        -3.413520         1.832179        -0.119540
 C        -2.512360         1.918689         1.174762
 C        -1.690358         3.216278         1.573232
 C        -0.843907         3.429767         0.350534
 O        -1.374990         3.165203        -1.005201
 C        -2.062966         1.953457        -0.946084
 H        -0.692454        -0.749417         0.401115
 H        -3.261155        -0.135175        -1.129213
 H        -3.448263        -0.326805         0.716453
 H        -4.430371         2.198829        -0.381431
 H        -2.954037         1.368605         2.028350
 H        -2.480673         3.995238         1.781527
 H        -1.100281         3.070278         2.529034
 H        -0.432669         4.433473         0.277137
 H         0.039173         2.706438         0.452727
 H        -1.991560         1.427657        -1.869213
