19
Iteration:   783
 O        -0.714119        -0.015839         0.376623
 C        -1.800476         0.886489         0.216459
 C        -3.232319         0.284635         0.011675
 C        -3.351511         1.871848         0.010516
 C        -2.355143         1.924795         1.320236
 C        -1.851738         3.381488         1.350636
 C        -0.831355         3.636093         0.226105
 O        -1.210752         3.034959        -0.979003
 C        -2.002046         1.897847        -0.950327
 H        -0.113129         0.071301        -0.444849
 H        -3.345933        -0.327294        -0.908208
 H        -3.542615        -0.121106         0.977019
 H        -4.263534         2.443832        -0.061192
 H        -2.651473         1.426797         2.270336
 H        -2.640567         4.066840         1.231268
 H        -1.518340         3.641349         2.352039
 H        -0.652848         4.714207         0.135390
 H         0.208724         3.306788         0.501973
 H        -2.183003         1.588772        -1.932511
