19
Iteration:  1410
 O        -0.775771        -0.014009         0.581318
 C        -1.820366         0.896590         0.192213
 C        -3.110562         0.193678        -0.086761
 C        -3.382282         1.899573        -0.049888
 C        -2.349084         1.935971         1.183820
 C        -1.615999         3.208983         1.446011
 C        -0.843785         3.668080         0.226396
 O        -1.361689         3.197792        -1.027942
 C        -2.079260         1.947173        -0.990458
 H         0.101849         0.409658         0.528541
 H        -3.204866        -0.351636        -1.039985
 H        -3.663935        -0.244597         0.769140
 H        -4.364921         2.291458        -0.118311
 H        -2.758648         1.482693         2.131289
 H        -2.356049         3.892317         1.960212
 H        -0.887913         2.898545         2.079732
 H        -0.866633         4.757248         0.293628
 H         0.123657         3.204096         0.222267
 H        -2.111042         1.444505        -2.032187
