19
Iteration:  2996
 O        -0.585128         0.221632         0.362478
 C        -1.787686         0.908087         0.151530
 C        -3.163822         0.310369        -0.099948
 C        -3.429683         1.757224        -0.112132
 C        -2.448859         1.875696         1.241560
 C        -1.645070         3.235000         1.497003
 C        -0.789582         3.558727         0.323497
 O        -1.341738         3.084350        -0.932155
 C        -2.163390         1.934183        -0.978336
 H        -0.306406         0.475970         1.305201
 H        -3.627073        -0.043369        -1.072654
 H        -3.665419        -0.220918         0.768335
 H        -4.422628         2.212149        -0.226961
 H        -2.811989         1.396305         2.133782
 H        -2.344439         4.025181         1.691983
 H        -1.165183         2.979552         2.426740
 H        -0.468523         4.527208         0.053227
 H         0.190969         3.074281         0.438057
 H        -2.008593         1.453065        -1.983679
