19
Iteration:    78charge 0 multiplicity 1
 O        -0.727934        -0.173413         0.562933
 C        -1.797951         0.795910         0.323700
 C        -3.273516         0.381532         0.065902
 C        -3.284070         1.920725        -0.083502
 C        -2.400349         2.006492         1.242628
 C        -1.515947         3.298106         1.383361
 C        -1.164037         3.927970         0.058600
 O        -1.186786         2.972016        -1.021630
 C        -1.935952         1.818541        -0.931310
 H        -0.509910        -0.428137        -0.354001
 H        -3.520394        -0.146006        -0.902838
 H        -3.725129        -0.076652         0.923284
 H        -4.125842         2.576280        -0.420210
 H        -2.866134         1.635334         2.187075
 H        -2.073442         4.093329         1.890760
 H        -0.632751         3.106553         2.007568
 H        -1.954325         4.707230        -0.138331
 H        -0.099210         4.298540         0.052496
 H        -1.985498         1.374731        -1.904804
