19
Iteration:   201charge 0 multiplicity 1
 O        -0.682339         0.008372         0.431183
 C        -1.763389         0.892866         0.271659
 C        -3.215374         0.332018         0.057354
 C        -3.282554         1.903519         0.011638
 C        -2.468537         1.980310         1.267339
 C        -1.795561         3.380102         1.433221
 C        -0.860191         3.526058         0.159970
 O        -1.263679         3.010463        -1.166099
 C        -2.042057         1.874124        -0.878279
 H         0.123002         0.601972         0.397124
 H        -3.339496        -0.069991        -0.956010
 H        -3.603759        -0.226671         0.870189
 H        -4.279858         2.585740        -0.192524
 H        -2.790795         1.429065         2.156106
 H        -2.594472         4.088706         1.459444
 H        -1.265672         3.498405         2.324130
 H        -0.439862         4.513805        -0.013263
 H         0.133274         2.919527         0.392179
 H        -2.272762         1.406299        -1.851999
