19
Iteration:  2231charge 0 multiplicity 1
 O        -0.626001         0.053870         0.413323
 C        -1.794865         0.868513         0.201566
 C        -3.175473         0.324064        -0.087496
 C        -3.269387         1.779082        -0.013181
 C        -2.459845         1.870168         1.255691
 C        -1.707607         3.211710         1.440174
 C        -0.824588         3.642419         0.214724
 O        -1.399675         3.220225        -1.012964
 C        -2.021514         1.960990        -0.940828
 H        -0.646623        -0.402831         1.240096
 H        -3.363758        -0.256322        -1.014295
 H        -3.644368        -0.116790         0.854680
 H        -4.254705         2.231283        -0.383078
 H        -3.005041         1.428465         2.071363
 H        -2.504525         3.818652         1.651075
 H        -1.068596         3.245355         2.385226
 H        -0.626151         4.673779         0.022891
 H         0.109680         3.158084         0.529932
 H        -2.139870         1.680508        -1.913942
