19
Iteration:  1000charge 0 multiplicity 1
 O        -0.707027         0.006902         0.397137
 C        -1.790032         0.912468         0.298854
 C        -3.141508         0.288338        -0.109750
 C        -3.366828         1.830063        -0.054635
 C        -2.428643         1.994739         1.183489
 C        -1.577468         3.198644         1.433529
 C        -0.882721         3.712141         0.193393
 O        -1.322256         3.018592        -0.938984
 C        -2.097186         1.929218        -0.894492
 H        -0.117581         0.333263         1.050798
 H        -3.263174        -0.203056        -1.092930
 H        -3.797831        -0.182971         0.620838
 H        -4.256060         2.490697        -0.273880
 H        -2.987572         1.645627         2.086532
 H        -2.228900         4.015681         1.773761
 H        -0.840312         2.945117         2.291687
 H        -1.155228         4.774673         0.051856
 H         0.208241         3.655326         0.211015
 H        -2.277583         1.445484        -1.951671
