19
Iteration:  3651charge 0 multiplicity 1
 O        -0.595908         0.108792         0.468713
 C        -1.793676         0.826531         0.142465
 C        -3.142922         0.346028        -0.040080
 C        -3.285982         1.829964        -0.227592
 C        -2.449389         1.924876         1.161721
 C        -1.674256         3.174058         1.574836
 C        -0.915811         3.615663         0.353420
 O        -1.447447         3.206259        -0.961940
 C        -1.942358         1.911034        -0.988225
 H        -0.687476        -0.881162         0.416244
 H        -3.366990        -0.233029        -0.926093
 H        -3.726032        -0.090089         0.727557
 H        -4.122250         2.448102        -0.404818
 H        -2.980732         1.529050         2.051920
 H        -2.463109         3.941260         1.733959
 H        -1.298007         2.968685         2.557562
 H        -0.755841         4.672195         0.293847
 H         0.117275         3.150248         0.401924
 H        -2.162655         1.647890        -1.975930
