19
Iteration:  1623charge 0 multiplicity 1
 O        -0.627833         0.095703         0.292270
 C        -1.824284         0.833973         0.255159
 C        -3.180209         0.313138         0.005308
 C        -3.361062         1.870026        -0.111946
 C        -2.468397         1.912219         1.209010
 C        -1.709959         3.212040         1.458804
 C        -0.928714         3.708425         0.215498
 O        -1.235799         3.088963        -0.969380
 C        -1.999387         1.878274        -0.857823
 H        -0.737334        -0.567819         1.013933
 H        -3.387448        -0.176838        -0.980156
 H        -3.554504        -0.154854         0.966313
 H        -4.233160         2.505301        -0.282892
 H        -3.082682         1.595922         2.085890
 H        -2.431806         3.904911         1.762887
 H        -0.991950         3.030159         2.303549
 H        -1.014311         4.820066         0.095670
 H         0.162885         3.511695         0.323185
 H        -1.839390         1.563337        -1.846383
