19
Iteration:  2406charge 0 multiplicity 1
 O        -0.593809         0.106966         0.381093
 C        -1.742929         0.845563         0.180352
 C        -3.193552         0.355643         0.011786
 C        -3.314784         1.818889        -0.070122
 C        -2.498333         1.839975         1.190591
 C        -1.732659         3.161843         1.486603
 C        -0.770198         3.666613         0.275513
 O        -1.414399         3.232841        -1.031467
 C        -2.019092         1.895113        -0.938664
 H        -0.795536        -0.428149         1.237393
 H        -3.391666        -0.187154        -0.929726
 H        -3.749783        -0.310287         0.794705
 H        -4.311018         2.378278        -0.448625
 H        -2.879325         1.249778         2.011511
 H        -2.460869         4.027994         1.659007
 H        -1.229789         2.872491         2.516790
 H        -0.772560         4.744588         0.377784
 H         0.293038         3.306235         0.231395
 H        -1.906014         1.636851        -1.980391
