19
Iteration:  3174charge 0 multiplicity 1
 O        -0.552560         0.140255         0.356235
 C        -1.763908         0.889402         0.188807
 C        -3.165978         0.367450        -0.004656
 C        -3.359497         1.818027        -0.109649
 C        -2.495046         1.993873         1.129373
 C        -1.669059         3.208728         1.565355
 C        -0.817620         3.452820         0.300742
 O        -1.448577         3.100452        -0.920127
 C        -2.058806         1.877224        -0.995739
 H         0.227935         0.816114         0.334973
 H        -3.560020        -0.135130        -0.994933
 H        -3.723845        -0.037253         0.875554
 H        -4.274256         2.391814        -0.271027
 H        -3.012037         1.471127         2.004933
 H        -2.522948         3.883734         1.664262
 H        -1.152115         3.299188         2.492014
 H        -0.541529         4.535320         0.318792
 H         0.064008         2.838910         0.491360
 H        -2.125479         1.515237        -2.082133
