19
Iteration:  2317
 O        -0.489003         0.352203         0.315448
 C        -1.808142         0.907866         0.125017
 C        -3.222743         0.268631        -0.036619
 C        -3.431863         1.793250        -0.061887
 C        -2.527676         1.950554         1.168469
 C        -1.734576         3.268420         1.524159
 C        -0.734645         3.388512         0.374953
 O        -1.346462         3.055248        -0.943857
 C        -2.085806         1.928363        -0.974634
 H        -0.616289        -0.470982         0.924807
 H        -3.512621        -0.288839        -0.868670
 H        -3.484415        -0.301354         0.824132
 H        -4.283947         2.501935        -0.322099
 H        -2.871069         1.497699         2.081286
 H        -2.325430         4.196211         1.480242
 H        -1.137831         3.347565         2.466393
 H        -0.566343         4.415450         0.186407
 H         0.232209         2.891619         0.440620
 H        -2.115948         1.357563        -1.894135
