19
Iteration:  2976
 O        -0.623008         0.126481         0.372566
 C        -1.823606         0.885716         0.206149
 C        -3.142439         0.250281        -0.080394
 C        -3.391123         1.840133        -0.093680
 C        -2.463140         1.958640         1.148936
 C        -1.620552         3.157331         1.531168
 C        -0.841934         3.579338         0.268668
 O        -1.390045         3.170472        -0.958839
 C        -2.071060         1.903093        -0.910146
 H        -0.247829         0.270189         1.212604
 H        -2.968193        -0.361681        -1.062249
 H        -3.551908        -0.457872         0.657904
 H        -4.224373         2.598413        -0.253398
 H        -3.012530         1.648591         1.994659
 H        -2.317294         4.025384         1.814056
 H        -0.965703         2.807019         2.329949
 H        -0.800345         4.657274         0.031805
 H         0.269023         3.321080         0.466161
 H        -2.326680         1.570992        -1.960350
