19
Iteration:  4696
 O        -0.532681         0.142605         0.457677
 C        -1.698768         0.882357         0.079291
 C        -3.142647         0.333145        -0.417898
 C        -3.356587         1.811689        -0.118037
 C        -2.489654         1.742012         1.148973
 C        -1.909266         3.077041         1.501762
 C        -0.863926         3.561249         0.524619
 O        -1.319459         3.258989        -0.878319
 C        -1.984217         2.064848        -0.883217
 H        -0.699496        -0.121560         1.437875
 H        -3.233296         0.147429        -1.510268
 H        -3.657366        -0.391091         0.252003
 H        -4.273916         2.433574        -0.090593
 H        -2.998579         1.333419         2.034180
 H        -2.670074         3.808903         1.838954
 H        -1.217228         2.849737         2.329276
 H        -0.815509         4.680024         0.517037
 H         0.132665         3.122356         0.561477
 H        -2.180417         1.773309        -1.965166
