19
Iteration:  2464
 O        -0.485925         0.312965         0.416486
 C        -1.785381         0.877374         0.206689
 C        -3.223776         0.239776        -0.006552
 C        -3.467409         1.808897        -0.113005
 C        -2.494367         1.877184         1.209578
 C        -1.680238         3.143842         1.421288
 C        -0.776329         3.476204         0.306612
 O        -1.318122         3.229148        -0.979653
 C        -2.137494         1.981396        -0.975851
 H        -0.626818        -0.622422         0.569664
 H        -3.301733        -0.396138        -0.957897
 H        -3.798509        -0.220144         0.860287
 H        -4.451905         2.223665        -0.278365
 H        -3.071647         1.506860         2.038971
 H        -2.327806         4.011902         1.567468
 H        -1.023800         3.040721         2.367162
 H        -0.211153         4.433185         0.504454
 H        -0.015809         2.700692         0.398989
 H        -2.118335         1.533581        -1.944888
