19
Iteration:  3830
 O        -0.765306        -0.093992         0.418427
 C        -1.746799         0.789281         0.204044
 C        -3.095730         0.282191        -0.056128
 C        -3.323099         1.880860        -0.136291
 C        -2.424406         1.894002         1.180649
 C        -1.775979         3.321800         1.486228
 C        -0.861905         3.723459         0.286103
 O        -1.384934         3.206022        -0.954590
 C        -1.975793         1.905636        -0.920738
 H         0.136607         0.362450         0.575080
 H        -3.164469        -0.179479        -1.063582
 H        -3.563555        -0.355826         0.734280
 H        -4.293569         2.388397        -0.434842
 H        -2.628540         1.492148         2.168011
 H        -2.699025         3.867789         1.820543
 H        -1.154792         3.157889         2.430199
 H        -0.727444         4.809673         0.181889
 H         0.206988         3.276183         0.288683
 H        -1.869561         1.541841        -1.944782
