19
Iteration:   432charge 0 multiplicity 1
 O        -0.520628         0.204128         0.413808
 C        -1.793309         0.840133         0.304903
 C        -3.285608         0.351709         0.009516
 C        -3.380544         1.909039        -0.096217
 C        -2.468407         1.961077         1.195633
 C        -1.775718         3.300177         1.443794
 C        -0.765537         3.543781         0.198308
 O        -1.257952         2.944951        -0.998452
 C        -2.088844         1.850208        -0.868744
 H        -0.292494         0.104294        -0.544385
 H        -3.332083        -0.220387        -0.887413
 H        -3.812505        -0.102536         0.912471
 H        -4.383223         2.537312        -0.186836
 H        -3.151647         1.585511         2.045699
 H        -2.624624         4.049057         1.401462
 H        -1.276488         3.461203         2.452744
 H        -0.515272         4.530396         0.023122
 H         0.100573         2.989137         0.441130
 H        -2.147746         1.328790        -1.840848
