19
Iteration:  3094
 O        -0.572491         0.155920         0.464092
 C        -1.771526         0.847904         0.171963
 C        -3.214147         0.374885        -0.055802
 C        -3.304773         1.864810        -0.033111
 C        -2.395815         1.854777         1.240542
 C        -1.795147         3.196255         1.474703
 C        -0.838631         3.531325         0.314581
 O        -1.417802         3.199062        -1.055076
 C        -1.989416         1.921127        -0.965174
 H        -0.532629        -0.746822        -0.033288
 H        -3.477377        -0.142369        -0.996767
 H        -3.642700        -0.112547         0.840003
 H        -4.216752         2.554651        -0.118173
 H        -2.958981         1.286443         2.099059
 H        -2.612852         3.772610         1.780603
 H        -0.965468         3.141451         2.233434
 H        -0.858300         4.600954         0.233823
 H         0.179315         3.136958         0.358786
 H        -1.950466         1.469707        -2.009114
