19
Iteration:  1268
 O        -0.571337         0.081535         0.490422
 C        -1.696829         0.894878         0.190188
 C        -3.263225         0.355389        -0.021006
 C        -3.372092         1.853577        -0.052525
 C        -2.372898         1.880329         1.202941
 C        -1.796353         3.270934         1.429910
 C        -0.812832         3.471798         0.242898
 O        -1.421152         3.225078        -1.013396
 C        -1.995609         1.927426        -0.955464
 H        -0.656181        -0.877172         0.527604
 H        -3.538427        -0.251236        -0.916703
 H        -3.834064        -0.002186         0.897188
 H        -4.253124         2.487024        -0.111081
 H        -2.821384         1.206219         1.978327
 H        -2.311372         4.220928         1.287686
 H        -1.097774         3.322641         2.349886
 H        -0.568412         4.552958         0.256862
 H         0.051416         2.812594         0.393936
 H        -1.967463         1.503397        -2.035035
