19
Iteration:  3584
 O        -0.513126         0.318973         0.344180
 C        -1.763510         0.898740         0.105518
 C        -3.225882         0.320218        -0.119335
 C        -3.418853         1.813701        -0.050223
 C        -2.478321         1.880685         1.156450
 C        -1.836245         3.179372         1.439518
 C        -0.792268         3.346358         0.413481
 O        -1.299911         3.120183        -0.900672
 C        -2.065221         1.979452        -0.941121
 H        -0.255007         0.526559         1.278000
 H        -3.356656        -0.289241        -0.959157
 H        -3.688703        -0.290532         0.656065
 H        -4.390215         2.402534        -0.276543
 H        -2.787294         1.351950         2.088620
 H        -2.590975         4.019509         1.452120
 H        -1.296093         3.384894         2.335305
 H        -0.233966         4.263412         0.399370
 H         0.006269         2.541515         0.533692
 H        -2.029777         1.770561        -1.957663
