19
Iteration:   990
 O        -0.737227         0.000709         0.367518
 C        -1.769275         0.829140         0.237747
 C        -3.190824         0.328870        -0.079115
 C        -3.314102         1.848117        -0.049032
 C        -2.502067         1.962256         1.258975
 C        -1.669324         3.281821         1.433417
 C        -0.862505         3.715810         0.187795
 O        -1.276678         3.067003        -1.001056
 C        -2.041353         1.844346        -0.853379
 H         0.074503         0.288855         0.813669
 H        -3.329249        -0.222986        -1.050742
 H        -3.693205        -0.171066         0.765735
 H        -4.256316         2.435304        -0.152270
 H        -2.587367         1.365148         2.160135
 H        -2.311897         4.112197         1.842332
 H        -0.957317         3.077707         2.436457
 H        -1.164327         4.818642         0.025995
 H         0.278288         3.664750         0.342457
 H        -2.237921         1.539525        -1.985340
