19
Iteration:   761
 O        -0.602248         0.080712         0.281865
 C        -1.771333         0.823129         0.310911
 C        -3.154222         0.318557        -0.002823
 C        -3.425790         1.900468        -0.006250
 C        -2.521832         2.039370         1.221138
 C        -1.811603         3.390781         1.412035
 C        -0.839162         3.564171         0.265178
 O        -1.189039         2.919679        -1.038418
 C        -2.101498         1.877065        -0.825647
 H         0.054371         0.312558        -0.342132
 H        -3.343581        -0.075010        -1.029539
 H        -3.628883        -0.172427         0.838843
 H        -4.343501         2.443059        -0.133116
 H        -2.886376         1.676812         2.199289
 H        -2.379946         4.251260         1.550281
 H        -1.348296         3.206081         2.363959
 H        -0.565409         4.599150         0.105211
 H         0.160653         3.098536         0.513231
 H        -2.148833         1.407136        -1.752562
