19
Iteration:  3557charge 0 multiplicity 1
 O        -0.561013         0.144741         0.226157
 C        -1.779984         0.888661         0.253285
 C        -3.185606         0.229343        -0.081506
 C        -3.375582         1.815843        -0.167723
 C        -2.540288         1.930710         1.168262
 C        -1.823469         3.236207         1.478790
 C        -0.720810         3.474793         0.408948
 O        -1.369284         3.195196        -0.870352
 C        -2.034577         1.949788        -0.908691
 H        -0.099192         0.090772         1.127308
 H        -3.130266        -0.549347        -0.934732
 H        -3.756466        -0.312096         0.683397
 H        -4.183389         2.563840        -0.368793
 H        -3.017225         1.492474         2.040736
 H        -2.530249         4.121225         1.344645
 H        -1.443947         3.453706         2.539975
 H        -0.358557         4.554407         0.330253
 H         0.209815         2.882677         0.460866
 H        -1.881399         1.685564        -2.034270
