19
Iteration:  1537
 O        -0.563887         0.162840         0.372039
 C        -1.778337         0.900527         0.232346
 C        -3.160532         0.342239        -0.070783
 C        -3.365898         1.805903        -0.124970
 C        -2.495272         1.993604         1.188902
 C        -1.690961         3.273940         1.400115
 C        -0.744184         3.439734         0.252596
 O        -1.484708         3.160800        -0.904669
 C        -2.040586         1.893204        -0.896071
 H        -0.578455        -0.315092         1.273288
 H        -3.227679        -0.125999        -1.076496
 H        -3.789157        -0.186656         0.656250
 H        -4.263505         2.305658        -0.406616
 H        -2.858578         1.638856         2.149672
 H        -2.257667         4.124155         1.661801
 H        -1.322813         2.862617         2.421018
 H        -0.163513         4.411550         0.138343
 H         0.044834         2.709917         0.423919
 H        -2.095591         1.341601        -1.806170
