19
Iteration:  4139
 O        -0.641217         0.094529         0.279144
 C        -1.726698         0.947122         0.262150
 C        -3.130013         0.318086        -0.051882
 C        -3.331029         1.777012        -0.244692
 C        -2.517040         1.940390         1.248896
 C        -1.799880         3.298083         1.551481
 C        -0.797448         3.506330         0.326670
 O        -1.364932         3.084294        -0.886907
 C        -2.091002         1.932984        -0.991181
 H         0.211656         0.363006         0.836037
 H        -3.023106        -0.169444        -1.028759
 H        -3.524727        -0.205448         0.797115
 H        -4.243792         2.308110        -0.463653
 H        -3.106841         1.383229         1.989748
 H        -2.422799         4.231891         1.639128
 H        -1.450408         3.095419         2.628371
 H        -0.498227         4.551955         0.436480
 H         0.302348         2.968689         0.453450
 H        -2.031777         1.693636        -2.081949
