19
Iteration:  3788charge 0 multiplicity 1
 O        -0.588702         0.173998         0.490658
 C        -1.815843         0.884545         0.210694
 C        -3.135793         0.317556        -0.184824
 C        -3.374454         1.839244        -0.036484
 C        -2.436675         1.863090         1.176895
 C        -1.848923         3.231292         1.444232
 C        -0.748059         3.455000         0.295130
 O        -1.336432         3.158963        -0.988116
 C        -2.110084         1.933619        -0.851135
 H         0.041333         0.785760         0.111575
 H        -3.206048        -0.175964        -1.158423
 H        -3.718136        -0.224727         0.645510
 H        -4.277530         2.482867        -0.256565
 H        -2.826818         1.289494         2.027452
 H        -2.510540         4.038092         1.444842
 H        -1.371503         3.225500         2.418307
 H        -0.224624         4.387768         0.157466
 H         0.126141         2.729622         0.537015
 H        -2.191718         1.567407        -1.912874
