19
Iteration:  1636
 O        -0.650589         0.034540         0.333033
 C        -1.717562         0.903796         0.116975
 C        -3.226367         0.258210         0.042776
 C        -3.321123         1.843289        -0.014743
 C        -2.503841         1.977098         1.185297
 C        -1.786351         3.261657         1.452598
 C        -0.850658         3.734112         0.303741
 O        -1.247689         3.071391        -0.964480
 C        -1.985954         1.913107        -1.007003
 H        -0.956376        -0.724613         0.882299
 H        -3.441556        -0.507517        -0.733548
 H        -3.609710        -0.237046         0.985552
 H        -4.193306         2.358733        -0.208235
 H        -2.711099         1.407436         2.090401
 H        -2.390988         4.031536         1.742146
 H        -1.058891         3.100471         2.397266
 H        -1.140066         4.849995         0.077924
 H         0.197799         3.568173         0.564449
 H        -2.210706         1.490104        -1.956560
