19
Iteration:  4198
 O        -0.595181         0.263819         0.567343
 C        -1.783452         0.883839         0.142276
 C        -3.171151         0.352970        -0.207444
 C        -3.394314         1.877158        -0.112485
 C        -2.363422         1.809831         1.193470
 C        -1.762995         3.186983         1.460845
 C        -0.819961         3.494219         0.365248
 O        -1.377403         3.127165        -0.932579
 C        -2.072252         1.930971        -0.935427
 H        -0.318580        -0.340285        -0.106072
 H        -3.211689        -0.168321        -1.201034
 H        -3.625938        -0.387389         0.471515
 H        -4.331611         2.486920        -0.178832
 H        -2.682718         1.304654         2.085533
 H        -2.523219         4.018494         1.421640
 H        -1.298572         3.157407         2.471393
 H        -0.667616         4.606957         0.364343
 H         0.123158         2.869939         0.349839
 H        -2.088262         1.497930        -1.998954
