19
Iteration:  4033
 O        -0.561544         0.330073         0.410633
 C        -1.759345         0.886081         0.206472
 C        -3.176440         0.283918        -0.025846
 C        -3.330925         1.838340        -0.215943
 C        -2.514387         1.910605         1.126931
 C        -1.743985         3.107764         1.489776
 C        -0.780259         3.497380         0.352082
 O        -1.420854         3.176566        -0.858191
 C        -2.016090         1.851426        -1.001145
 H        -0.635052        -0.675698         0.622764
 H        -3.384859        -0.353906        -0.962352
 H        -3.826106        -0.005155         0.795571
 H        -4.115611         2.574319        -0.383942
 H        -3.082942         1.500321         1.997229
 H        -2.319399         3.949547         1.868996
 H        -1.096766         2.702599         2.241445
 H        -0.698602         4.607121         0.214363
 H         0.220121         3.071534         0.402166
 H        -2.079574         1.751776        -2.118086
