19
Iteration:   872
 O        -0.560625         0.430524         0.661472
 C        -1.792103         0.824684         0.206174
 C        -3.297470         0.275476        -0.054776
 C        -3.453727         1.847287        -0.212206
 C        -2.428869         1.896384         1.132486
 C        -1.540470         3.081250         1.472626
 C        -0.696922         3.468910         0.216407
 O        -1.411230         3.158679        -0.984683
 C        -2.211995         1.944936        -0.969603
 H        -0.355393        -0.540721         0.394466
 H        -3.376861        -0.328031        -1.022352
 H        -3.664750        -0.148401         0.900132
 H        -4.419204         2.293508        -0.434573
 H        -2.901073         1.483864         2.085506
 H        -2.250912         3.868659         1.746157
 H        -0.929031         2.881543         2.365651
 H         0.032574         4.339186         0.060894
 H         0.229635         2.780359         0.262519
 H        -2.358049         1.617919        -1.971269
