19
Iteration:  1406charge 0 multiplicity 1
 O        -0.760712        -0.059051         0.574548
 C        -1.828191         0.939445         0.187548
 C        -3.079551         0.212404        -0.083508
 C        -3.406802         1.883601        -0.069438
 C        -2.355038         1.944287         1.191232
 C        -1.620601         3.196297         1.419330
 C        -0.806648         3.654155         0.217791
 O        -1.363545         3.220258        -1.019341
 C        -2.129989         1.936867        -0.958797
 H         0.036563         0.489058         0.781707
 H        -3.133918        -0.319491        -1.018299
 H        -3.642229        -0.271923         0.699288
 H        -4.476045         2.155141        -0.172744
 H        -2.729090         1.447837         2.088341
 H        -2.305697         4.069766         1.825141
 H        -0.885973         2.823422         2.231087
 H        -0.865616         4.826914         0.346708
 H         0.241495         3.264459         0.157340
 H        -2.133895         1.454837        -1.968636
