19
Iteration:  1546charge 0 multiplicity 1
 O        -0.609282         0.180620         0.408254
 C        -1.819722         0.869357         0.184997
 C        -3.155365         0.257967        -0.069890
 C        -3.397013         1.815370        -0.092628
 C        -2.547206         1.979400         1.166522
 C        -1.648012         3.245126         1.470093
 C        -0.729561         3.497574         0.297146
 O        -1.417838         3.179943        -1.001592
 C        -2.032223         1.917055        -0.909663
 H        -0.553398        -0.177171         1.359467
 H        -3.355857        -0.390145        -0.977579
 H        -3.551007        -0.225942         0.876605
 H        -4.419660         2.191883        -0.402763
 H        -2.916788         1.525504         2.105852
 H        -2.209357         4.086044         1.737873
 H        -0.836118         3.058474         2.355541
 H        -0.375969         4.541360         0.281134
 H         0.046801         2.729322         0.245739
 H        -2.046161         1.643178        -1.951126
