19
Iteration:   641charge 0 multiplicity 1
 O        -0.713554        -0.058360         0.543079
 C        -1.792060         0.866590         0.207982
 C        -3.224705         0.307173         0.152286
 C        -3.361562         1.882914        -0.138208
 C        -2.353600         1.932189         1.117388
 C        -1.708492         3.280691         1.449055
 C        -0.862077         3.686086         0.196437
 O        -1.306041         3.118171        -1.051443
 C        -2.055935         1.869896        -1.018207
 H         0.119841         0.461096         0.782153
 H        -3.496048        -0.207378        -0.800882
 H        -3.558405        -0.157204         1.088541
 H        -4.203011         2.566620        -0.085385
 H        -2.765356         1.416722         2.024626
 H        -2.459598         4.084685         1.745188
 H        -0.958484         3.215767         2.239887
 H        -0.684845         4.698134        -0.034093
 H         0.135738         3.226816         0.323360
 H        -2.117310         1.547353        -2.050032
