19
Iteration:   408
 O        -0.719200         0.083756         0.376765
 C        -1.764677         0.879354         0.150982
 C        -3.224059         0.297455         0.124734
 C        -3.396620         1.814638         0.034936
 C        -2.424476         2.010879         1.243302
 C        -1.879898         3.348214         1.322088
 C        -0.795143         3.524499         0.263984
 O        -1.147203         3.031641        -1.008180
 C        -2.037382         1.877278        -0.988654
 H         0.041678         0.581553         0.105546
 H        -3.407091        -0.237428        -0.845491
 H        -3.457929        -0.215467         1.099532
 H        -4.431546         2.373809        -0.070192
 H        -2.771917         1.481464         2.239963
 H        -2.672835         4.167277         1.373787
 H        -1.264593         3.527529         2.314890
 H        -0.492355         4.550775         0.127179
 H         0.167488         3.133051         0.607900
 H        -2.177902         1.480221        -1.966684
