19
Iteration:  1232
 O        -0.637693         0.070157         0.604908
 C        -1.798902         0.841027         0.311653
 C        -3.114646         0.292893        -0.148850
 C        -3.484420         1.764904        -0.115617
 C        -2.484533         1.955539         1.175180
 C        -1.519491         3.236226         1.498896
 C        -0.773427         3.597332         0.205073
 O        -1.438649         3.200586        -1.023195
 C        -2.070708         1.999486        -0.960741
 H        -0.957974        -0.726259         0.223331
 H        -3.045194        -0.274730        -1.100264
 H        -3.704347        -0.335067         0.571542
 H        -4.448086         2.267105        -0.359315
 H        -2.831023         1.479767         2.171073
 H        -2.000119         4.166012         2.000754
 H        -0.808400         2.910535         2.180077
 H        -0.813759         4.761789         0.035041
 H         0.259021         3.373346         0.172420
 H        -2.075056         1.527891        -2.077543
