19
Iteration:  2430charge 0 multiplicity 1
 O        -0.535260         0.266218         0.474839
 C        -1.806844         0.857024         0.179096
 C        -3.142553         0.304778        -0.180449
 C        -3.388551         1.867373        -0.035992
 C        -2.470577         1.882090         1.240618
 C        -1.588471         3.180068         1.459013
 C        -0.895213         3.546555         0.254389
 O        -1.374163         3.121483        -0.966485
 C        -2.134519         1.889693        -0.928984
 H        -0.942170        -0.587357         0.839448
 H        -3.285279        -0.174155        -1.199051
 H        -3.781083        -0.426733         0.510870
 H        -4.204866         2.574813        -0.414929
 H        -2.949688         1.542878         2.140594
 H        -2.416397         3.775352         1.857550
 H        -0.723664         3.099026         2.276829
 H        -0.610379         4.653714         0.269741
 H         0.059211         3.025719         0.397710
 H        -2.068105         1.715108        -1.960509
