19
Iteration:  3457charge 0 multiplicity 1
 O        -0.646301         0.061091         0.401708
 C        -1.797829         0.939811         0.240572
 C        -3.140788         0.291275        -0.100686
 C        -3.343329         1.850743        -0.154356
 C        -2.574478         1.922714         1.166681
 C        -1.716357         3.084430         1.522023
 C        -0.831390         3.682355         0.315151
 O        -1.347801         3.124852        -0.959277
 C        -2.025086         1.908210        -0.918633
 H         0.186401         0.679144         0.441859
 H        -2.965188        -0.274912        -1.017525
 H        -3.704935        -0.185400         0.646691
 H        -4.216504         2.375131        -0.172164
 H        -3.115655         1.423392         1.954361
 H        -2.172715         3.916135         2.060381
 H        -0.962494         2.741184         2.331347
 H        -0.844964         4.782554         0.302962
 H         0.238972         3.404910         0.252189
 H        -1.991077         1.728074        -2.025175
