19
Iteration:  4620charge 0 multiplicity 1
 O        -0.591908         0.184839         0.247962
 C        -1.761962         0.870633         0.154254
 C        -3.101317         0.221362        -0.257173
 C        -3.305335         1.784177        -0.163330
 C        -2.555563         1.864264         1.137931
 C        -1.901813         3.226280         1.556597
 C        -0.826659         3.482397         0.570437
 O        -1.318978         3.266806        -0.800394
 C        -1.997414         1.960449        -0.935811
 H         0.044127         0.571971         0.830269
 H        -3.247971        -0.344814        -1.219110
 H        -3.751327        -0.158507         0.586968
 H        -4.183691         2.385803        -0.452493
 H        -2.981532         1.312479         1.962103
 H        -2.655288         4.033083         1.452812
 H        -1.583815         3.082173         2.596304
 H        -0.245297         4.392010         0.336925
 H         0.036458         2.710283         0.688994
 H        -2.052827         1.605221        -1.995900
