19
Iteration:  1066charge 0 multiplicity 1
 O        -0.634840         0.135863         0.500372
 C        -1.751650         0.876931         0.172608
 C        -3.297109         0.260126        -0.131358
 C        -3.350829         1.800488        -0.049429
 C        -2.471924         1.962945         1.224094
 C        -1.558584         3.203878         1.535257
 C        -0.772892         3.621245         0.206557
 O        -1.403987         3.107333        -1.049025
 C        -2.089518         1.926088        -0.940488
 H        -0.177705         0.451290         1.339483
 H        -3.350492        -0.250239        -1.103522
 H        -3.910188        -0.234825         0.616565
 H        -4.246857         2.357079        -0.337407
 H        -3.003350         1.577807         2.111698
 H        -2.103704         3.947680         2.102205
 H        -0.935068         2.841026         2.225141
 H        -0.731184         4.692235         0.039156
 H         0.192092         3.194508         0.258043
 H        -2.201307         1.436584        -1.980334
