19
Iteration:  4668
 O        -0.587045         0.242959         0.402465
 C        -1.770747         0.851010         0.117133
 C        -3.133035         0.285392        -0.331139
 C        -3.348630         1.805946        -0.221761
 C        -2.470461         1.705404         1.198687
 C        -1.928067         3.158258         1.589795
 C        -0.790801         3.616145         0.533713
 O        -1.292688         3.208798        -0.856906
 C        -1.977521         2.030093        -0.909719
 H        -0.543535        -0.760357         0.120550
 H        -3.223763        -0.018268        -1.378913
 H        -3.660130        -0.368706         0.365840
 H        -4.235794         2.437748        -0.257877
 H        -3.097520         1.280656         2.011548
 H        -2.788989         3.817816         1.704122
 H        -1.360730         3.087681         2.528483
 H        -0.754415         4.711946         0.451876
 H         0.264204         3.284953         0.608959
 H        -2.082006         1.605797        -1.896043
