19
Iteration:   598charge 0 multiplicity 1
 O        -0.599869         0.148451         0.342357
 C        -1.790554         0.812176         0.350929
 C        -3.382567         0.313520        -0.094761
 C        -3.392364         1.831937         0.050707
 C        -2.414671         2.020754         1.268770
 C        -1.747496         3.371356         1.391357
 C        -0.869040         3.678775         0.109663
 O        -1.082287         2.835506        -0.970884
 C        -2.101379         1.861966        -0.797393
 H        -0.122747         0.573945        -0.459725
 H        -3.451992        -0.086018        -1.133774
 H        -3.940336        -0.335843         0.596505
 H        -4.278303         2.354216        -0.229992
 H        -2.959451         1.774262         2.232119
 H        -2.598276         4.088566         1.778376
 H        -1.066876         3.239347         2.250310
 H        -0.951224         4.732213        -0.221115
 H         0.132890         3.555770         0.430278
 H        -2.060273         1.386336        -1.826469
