19
Iteration:  1341
 O        -0.518664         0.331819         0.347888
 C        -1.825900         0.848230         0.168526
 C        -3.214185         0.254925         0.004847
 C        -3.363993         1.858919        -0.042235
 C        -2.568760         1.990107         1.205329
 C        -1.748136         3.249223         1.421048
 C        -0.694277         3.401091         0.262144
 O        -1.266088         3.076561        -0.968789
 C        -2.146311         1.925290        -0.921816
 H        -0.769723        -0.551540         0.791627
 H        -3.478442        -0.344647        -0.860768
 H        -3.593830        -0.143489         0.954753
 H        -4.392743         2.304204         0.010773
 H        -3.004705         1.496876         2.114061
 H        -2.420575         4.189163         1.459668
 H        -1.198198         3.153896         2.312972
 H        -0.398799         4.500945         0.037911
 H         0.083273         2.735103         0.620696
 H        -2.120920         1.527207        -1.984295
