19
Iteration:  1688
 O        -0.573105         0.145366         0.416702
 C        -1.720142         0.862514         0.250556
 C        -3.199735         0.354766        -0.118902
 C        -3.377324         1.836823         0.021463
 C        -2.487621         1.944416         1.254924
 C        -1.771841         3.232178         1.443928
 C        -0.747864         3.494429         0.226965
 O        -1.409173         3.182316        -1.056819
 C        -2.026763         1.912985        -0.854562
 H        -0.558623        -0.863177         0.393251
 H        -3.370965         0.098074        -1.210162
 H        -3.494925        -0.393535         0.663411
 H        -4.307909         2.302118        -0.272577
 H        -2.972828         1.504127         2.157935
 H        -2.567941         4.068551         1.331558
 H        -1.266068         3.446477         2.382538
 H        -0.414016         4.544856         0.292966
 H         0.108326         2.786323         0.285884
 H        -2.058289         1.340185        -1.770136
