19
Iteration:  1716
 O        -0.625776         0.349497         0.492206
 C        -1.743409         0.937918         0.150389
 C        -3.159606         0.248525        -0.008211
 C        -3.382803         1.786714        -0.107030
 C        -2.449156         1.976853         1.083619
 C        -1.674463         3.183219         1.452466
 C        -0.698963         3.363051         0.327729
 O        -1.401182         3.141105        -0.951478
 C        -2.207288         1.946721        -0.961649
 H        -0.522610        -0.598815         0.539772
 H        -3.313766        -0.327199        -0.899171
 H        -3.494488        -0.142319         0.942254
 H        -4.417186         2.237547        -0.357391
 H        -2.859105         1.454348         1.945059
 H        -2.283597         4.087409         1.596089
 H        -1.028396         3.075774         2.355322
 H        -0.298811         4.416120         0.425821
 H         0.161246         2.679003         0.351242
 H        -2.323214         1.690998        -2.094326
