19
Iteration:  4416
 O        -0.499192         0.223009         0.306186
 C        -1.778386         0.872848         0.207765
 C        -3.184994         0.309076        -0.163695
 C        -3.446275         1.791163        -0.159706
 C        -2.457382         1.854593         1.148757
 C        -1.835050         3.161330         1.585399
 C        -0.875578         3.483234         0.415040
 O        -1.292658         3.209956        -0.929323
 C        -1.984592         1.989520        -0.933516
 H        -0.574568        -0.158990         1.280459
 H        -3.304150        -0.140316        -1.138596
 H        -3.665719        -0.251028         0.649022
 H        -4.300398         2.406460        -0.455197
 H        -3.024023         1.280572         1.960910
 H        -2.523277         4.035310         1.635020
 H        -1.311305         3.079945         2.588885
 H        -0.648282         4.567032         0.396031
 H         0.073647         2.885652         0.529892
 H        -1.895679         1.559540        -1.979779
