19
Iteration:  4628
 O        -0.570427         0.128603         0.249515
 C        -1.723201         0.922140         0.151268
 C        -3.114322         0.298558        -0.202229
 C        -3.296256         1.828161        -0.241861
 C        -2.592151         1.894034         1.135122
 C        -1.935111         3.173557         1.563278
 C        -0.783067         3.468343         0.586858
 O        -1.363154         3.205735        -0.826846
 C        -2.009865         1.957431        -0.918005
 H         0.163860         0.685567         0.369577
 H        -3.098074        -0.389097        -1.055032
 H        -3.484400        -0.110887         0.733498
 H        -4.263647         2.233750        -0.450364
 H        -3.104477         1.284074         1.910244
 H        -2.597487         4.075081         1.565939
 H        -1.588497         3.041843         2.607373
 H        -0.468908         4.561559         0.597244
 H         0.060279         2.790222         0.747963
 H        -1.832969         1.698837        -1.981692
