19
Iteration:   946charge 0 multiplicity 1
 O        -0.679060        -0.021705         0.407802
 C        -1.776207         0.833441         0.087517
 C        -3.181396         0.356602         0.041311
 C        -3.348218         1.879653         0.030469
 C        -2.371731         1.905142         1.247261
 C        -1.873800         3.370558         1.365335
 C        -0.773991         3.638613         0.278402
 O        -1.305449         3.056308        -0.949223
 C        -2.001956         1.903028        -0.908478
 H        -0.145268         0.027760        -0.392033
 H        -3.475267        -0.192567        -0.893736
 H        -3.596354        -0.185138         0.911449
 H        -4.144583         2.473634        -0.452529
 H        -2.776698         1.367560         2.074536
 H        -2.694276         4.145058         1.303712
 H        -1.406881         3.576454         2.478982
 H        -0.630470         4.748193         0.042380
 H         0.234249         3.096456         0.523101
 H        -2.279834         1.462531        -1.924099
