19
Iteration:  2817
 O        -0.557255         0.271386         0.506101
 C        -1.827519         0.903071         0.189768
 C        -3.120358         0.327555        -0.188883
 C        -3.371693         1.842155        -0.011840
 C        -2.432395         1.868060         1.196124
 C        -1.749190         3.184681         1.456502
 C        -0.783333         3.452504         0.313976
 O        -1.373757         3.128517        -1.011530
 C        -2.124710         1.966185        -0.915738
 H        -0.493385        -0.586513         0.108342
 H        -3.202891        -0.230515        -1.155403
 H        -3.680075        -0.232129         0.603655
 H        -4.334535         2.464664        -0.038399
 H        -2.798499         1.281031         2.073491
 H        -2.504200         3.950186         1.524114
 H        -1.190184         3.116860         2.444517
 H        -0.542063         4.584699         0.207727
 H         0.170607         2.801550         0.505160
 H        -2.213416         1.656714        -1.958391
