19
Iteration:  2943
 O        -0.602118         0.001299         0.450661
 C        -1.732671         0.821069         0.222063
 C        -3.250439         0.357478        -0.095693
 C        -3.347284         1.868328        -0.094659
 C        -2.329491         1.822488         1.187712
 C        -1.682531         3.174975         1.482952
 C        -0.920429         3.616324         0.243569
 O        -1.426269         3.252173        -1.004376
 C        -2.017607         1.940207        -0.942120
 H        -0.289831         0.308064         1.363018
 H        -3.218619        -0.181350        -1.104812
 H        -3.753038        -0.174444         0.730702
 H        -4.145995         2.648528        -0.150518
 H        -2.795945         1.398510         2.055072
 H        -2.545553         3.874422         1.807543
 H        -1.203082         3.074116         2.431268
 H        -0.809659         4.692124         0.071133
 H         0.169415         3.168911         0.329459
 H        -2.184820         1.646873        -2.021604
