19
Iteration:  1806charge 0 multiplicity 1
 O        -0.686060        -0.088474         0.341074
 C        -1.750857         0.771101         0.222062
 C        -3.181551         0.250471         0.051714
 C        -3.318933         1.929438        -0.031879
 C        -2.474831         1.908106         1.211565
 C        -1.759726         3.323776         1.424232
 C        -0.830929         3.671341         0.240622
 O        -1.297339         3.197235        -1.003368
 C        -2.037685         1.910405        -0.944210
 H         0.022201         0.464786         0.572449
 H        -3.201342        -0.361044        -0.811504
 H        -3.562506        -0.147685         0.939972
 H        -4.349347         2.399628         0.032801
 H        -2.875177         1.420861         2.101987
 H        -2.643711         4.087272         1.450002
 H        -1.304168         3.433052         2.357194
 H        -0.708857         4.699751         0.067984
 H         0.180324         3.297154         0.559125
 H        -2.166132         1.507532        -2.064335
