19
Iteration:  2389
 O        -0.638176         0.030981         0.322120
 C        -1.776473         0.862805         0.203655
 C        -3.165977         0.243616        -0.055711
 C        -3.327046         1.846536        -0.121734
 C        -2.377187         1.934400         1.177216
 C        -1.731890         3.254625         1.438483
 C        -0.912748         3.601716         0.303090
 O        -1.381548         3.220048        -0.917829
 C        -1.988422         1.944155        -0.919734
 H        -0.490513        -0.361828         1.222722
 H        -3.476726        -0.576124        -0.744361
 H        -3.525444        -0.257606         0.837050
 H        -4.173594         2.415842        -0.158519
 H        -2.926575         1.630642         2.104223
 H        -2.509915         3.993527         1.544375
 H        -1.097865         3.254551         2.295393
 H        -0.674668         4.703241         0.221444
 H         0.059292         3.149812         0.528430
 H        -2.107068         1.505956        -1.928410
