19
Iteration:  3836charge 0 multiplicity 1
 O        -0.737704        -0.125650         0.382894
 C        -1.787627         0.858718         0.245920
 C        -3.126658         0.282888        -0.060749
 C        -3.337468         1.847190        -0.140025
 C        -2.389846         1.943105         1.187541
 C        -1.720523         3.284930         1.422644
 C        -0.934633         3.741253         0.330655
 O        -1.399656         3.174740        -0.907608
 C        -1.916066         1.883480        -0.936346
 H         0.112376         0.265469         0.689176
 H        -3.154481        -0.137200        -1.075981
 H        -3.626817        -0.365227         0.642222
 H        -4.263136         2.290620        -0.410524
 H        -2.975404         1.568343         2.097042
 H        -2.499511         3.977323         1.815334
 H        -0.971298         3.367784         2.208902
 H        -0.732125         4.824669         0.199497
 H         0.089758         3.404660         0.357687
 H        -1.832628         1.635394        -2.018398
