19
Iteration:  1867
 O        -0.562219         0.130381         0.413042
 C        -1.782654         0.861059         0.181873
 C        -3.203500         0.381095        -0.008993
 C        -3.403559         1.840457        -0.034472
 C        -2.420839         1.851720         1.201931
 C        -1.737814         3.183752         1.389109
 C        -0.796209         3.590833         0.235518
 O        -1.291492         3.134699        -1.002019
 C        -2.136434         1.918231        -0.922218
 H        -0.404308        -0.083525         1.324438
 H        -3.475701        -0.178083        -0.989403
 H        -3.742354        -0.215015         0.813193
 H        -4.436165         2.214541        -0.164745
 H        -2.718602         1.458697         2.227752
 H        -2.462388         3.996294         1.359728
 H        -1.125685         3.265165         2.392508
 H        -0.687752         4.760019         0.157412
 H         0.207673         3.119070         0.386536
 H        -2.314663         1.621202        -1.900251
