19
Iteration:  3497charge 0 multiplicity 1
 O        -0.633843         0.124767         0.541286
 C        -1.743583         0.825229         0.213605
 C        -3.245799         0.345619        -0.190037
 C        -3.306437         1.849473        -0.036102
 C        -2.414016         1.747414         1.141002
 C        -1.737384         3.139399         1.473406
 C        -0.875832         3.759923         0.301177
 O        -1.337083         3.172925        -0.928524
 C        -1.983254         1.959300        -0.989040
 H        -0.600790        -0.637195        -0.017752
 H        -3.471202        -0.064649        -1.253479
 H        -3.722773        -0.242991         0.681388
 H        -4.163168         2.623272        -0.205173
 H        -2.825892         1.218821         2.050908
 H        -2.555001         3.769287         1.773222
 H        -1.101243         2.867915         2.302034
 H        -1.099184         4.779628         0.052178
 H         0.174527         3.582032         0.571448
 H        -2.016411         1.554007        -2.015861
