19
Iteration:  1053charge 0 multiplicity 1
 O        -0.561708         0.156650         0.563141
 C        -1.870577         0.808539         0.241891
 C        -3.231673         0.370130        -0.089920
 C        -3.407247         1.937997        -0.122146
 C        -2.414128         1.871035         1.123586
 C        -1.532365         3.082781         1.500649
 C        -0.856391         3.627091         0.221881
 O        -1.414883         3.139983        -1.034604
 C        -2.075896         1.828396        -0.962681
 H        -0.385659         0.631086         1.351238
 H        -3.484848        -0.102201        -1.015095
 H        -3.723854        -0.088033         0.782540
 H        -4.305336         2.622823        -0.294905
 H        -2.705391         1.332902         2.065649
 H        -2.085934         3.883572         1.918288
 H        -0.765893         2.823316         2.118050
 H        -0.855038         4.667399         0.177039
 H         0.160730         3.370753         0.220784
 H        -2.163228         1.521536        -2.038765
