19
Iteration:   713charge 0 multiplicity 1
 O        -0.627397         0.212329         0.612911
 C        -1.805004         0.901021         0.155356
 C        -3.211262         0.296274         0.026965
 C        -3.436640         1.842009        -0.024789
 C        -2.483264         1.907116         1.140431
 C        -1.644888         3.212760         1.369785
 C        -0.709150         3.392847         0.194268
 O        -1.385750         3.133240        -1.001637
 C        -2.124680         1.953167        -1.028216
 H         0.182408         0.754604         0.892064
 H        -3.300050        -0.311667        -0.856508
 H        -3.542724        -0.170490         0.978331
 H        -4.315400         2.515031        -0.256529
 H        -2.821114         1.429361         2.035710
 H        -2.354496         4.028485         1.563203
 H        -0.938670         3.157243         2.253041
 H        -0.255780         4.386528         0.040205
 H         0.153359         2.741194         0.373161
 H        -2.224589         1.603639        -2.104329
