19
Iteration:  1724charge 0 multiplicity 1
 O        -0.586670         0.387952         0.519339
 C        -1.809638         0.935878         0.089354
 C        -3.153031         0.294059         0.039691
 C        -3.452668         1.799459        -0.093727
 C        -2.498515         1.952037         1.105374
 C        -1.636317         3.143526         1.463043
 C        -0.676298         3.353202         0.327510
 O        -1.412613         3.167497        -0.956650
 C        -2.122584         1.930289        -1.019813
 H        -0.505389        -0.598369         0.446483
 H        -3.485274        -0.311087        -0.858823
 H        -3.402077        -0.347131         0.951845
 H        -4.427728         2.179654        -0.337134
 H        -2.883714         1.505167         2.039064
 H        -2.305651         3.927453         1.547873
 H        -1.242999         2.890465         2.544579
 H        -0.273358         4.427507         0.050929
 H         0.203943         2.681480         0.403289
 H        -2.099419         1.600100        -2.023602
