19
Iteration:  4921charge 0 multiplicity 1
 O        -0.523139         0.306939         0.393971
 C        -1.737436         0.902774         0.112944
 C        -3.058099         0.326913        -0.319011
 C        -3.290997         1.840134        -0.294602
 C        -2.607406         1.756977         1.102433
 C        -1.924045         3.048230         1.697344
 C        -0.908067         3.443529         0.593746
 O        -1.297839         3.289565        -0.814429
 C        -1.946630         2.001662        -0.972893
 H        -0.559899        -0.577466         0.022035
 H        -3.213841        -0.077674        -1.358700
 H        -3.703868        -0.101543         0.483605
 H        -4.282361         2.282442        -0.437353
 H        -3.063721         1.183142         1.930826
 H        -2.676896         3.841491         1.877833
 H        -1.465959         2.689133         2.664673
 H        -0.678581         4.557736         0.594898
 H        -0.007174         2.897413         0.690140
 H        -2.126500         1.660250        -2.072610
