19
Iteration:  4027
 O        -0.524553         0.306378         0.439318
 C        -1.759212         0.926958         0.181145
 C        -3.205549         0.272650        -0.082922
 C        -3.324585         1.829284        -0.168130
 C        -2.531319         1.956474         1.136017
 C        -1.734148         3.113715         1.513978
 C        -0.834793         3.481063         0.349249
 O        -1.414322         3.144856        -0.885585
 C        -2.019981         1.898625        -1.017506
 H        -0.769767        -0.612627         0.505712
 H        -3.342960        -0.369553        -0.901085
 H        -3.780231        -0.188200         0.762656
 H        -4.170385         2.540272        -0.341619
 H        -2.914882         1.392520         2.001373
 H        -2.204312         4.096139         1.791293
 H        -1.003270         2.850937         2.348989
 H        -0.628868         4.552047         0.355148
 H         0.170869         2.884028         0.441842
 H        -2.015371         1.625990        -2.062408
