19
Iteration:  1380
 O        -0.623704         0.045576         0.474730
 C        -1.799757         0.835332         0.260021
 C        -3.186135         0.251980        -0.116507
 C        -3.313384         1.861600        -0.035694
 C        -2.447802         1.900862         1.221693
 C        -1.665842         3.274242         1.410462
 C        -0.760525         3.548826         0.183065
 O        -1.477335         3.242590        -0.995881
 C        -2.019031         1.945386        -0.936572
 H        -0.391762         0.109126         1.400684
 H        -3.444220        -0.246252        -1.081969
 H        -3.761939        -0.232218         0.692410
 H        -4.270419         2.415539        -0.188538
 H        -3.030772         1.624292         2.094556
 H        -2.390731         4.023336         1.614416
 H        -0.947886         3.090265         2.314365
 H        -0.400473         4.541155         0.162039
 H         0.076406         2.803771         0.110660
 H        -2.110417         1.569176        -1.917473
