19
Iteration:  1881charge 0 multiplicity 1
 O        -0.563100         0.292779         0.427331
 C        -1.798800         0.880147         0.186765
 C        -3.272087         0.234797        -0.075857
 C        -3.424013         1.848453         0.005811
 C        -2.423600         1.880820         1.150643
 C        -1.673094         3.223430         1.423629
 C        -0.743201         3.493324         0.241486
 O        -1.383572         3.086151        -1.003722
 C        -2.057880         1.947944        -0.936652
 H        -0.711038         0.010932         1.416879
 H        -3.399092        -0.340873        -1.030671
 H        -3.641699        -0.271695         0.818114
 H        -4.294642         2.657527         0.055559
 H        -2.866556         1.388645         2.034226
 H        -2.434608         3.914158         1.703460
 H        -1.059822         3.104230         2.359924
 H        -0.538652         4.596655         0.149807
 H         0.271725         3.056066         0.445524
 H        -2.062555         1.444393        -1.986306
