19
Iteration:  3039
 O        -0.510972         0.248335         0.288180
 C        -1.737535         0.920697         0.193153
 C        -3.218846         0.332626        -0.097066
 C        -3.401870         1.799740        -0.037017
 C        -2.437050         1.902580         1.249448
 C        -1.818123         3.287040         1.462067
 C        -0.745436         3.361146         0.317964
 O        -1.377101         3.129308        -0.965804
 C        -2.093666         1.939577        -0.890322
 H        -0.563111        -0.266938         1.122817
 H        -3.194207        -0.226956        -1.050713
 H        -3.436914        -0.352294         0.754219
 H        -4.317085         2.366319        -0.281102
 H        -3.079814         1.463437         2.089866
 H        -2.630077         3.935652         1.381354
 H        -1.312894         3.595343         2.395110
 H        -0.260636         4.327192         0.291732
 H         0.105524         2.663829         0.427457
 H        -2.264709         1.663892        -1.969128
