19
Iteration:   175charge 0 multiplicity 1
 O        -0.643689         0.206826         0.575791
 C        -1.837945         0.905899         0.253829
 C        -3.285072         0.321760         0.085035
 C        -3.439874         1.844452        -0.137731
 C        -2.488193         1.941891         1.142819
 C        -1.562669         3.188693         1.394674
 C        -0.745583         3.685126         0.167897
 O        -1.270158         2.967492        -1.005813
 C        -2.129170         1.822221        -0.971244
 H        -0.010441         0.462099        -0.132458
 H        -3.360933        -0.348264        -0.855199
 H        -3.749390        -0.107358         1.013143
 H        -4.353357         2.315327        -0.210404
 H        -2.921761         1.463868         2.154711
 H        -2.227293         3.973585         1.846728
 H        -0.908841         2.863884         2.303101
 H        -0.760994         4.852210        -0.048896
 H         0.321075         3.494927         0.264510
 H        -2.144153         1.440993        -1.970601
