19
Iteration:  1221
 O        -0.646433         0.123988         0.641878
 C        -1.808391         0.902348         0.201851
 C        -3.211718         0.270525        -0.130167
 C        -3.365962         1.809592        -0.086622
 C        -2.501730         1.940024         1.219431
 C        -1.501478         3.137214         1.443065
 C        -0.854078         3.620441         0.199695
 O        -1.394723         3.202199        -1.033815
 C        -2.038406         1.936124        -0.938966
 H        -0.499949        -0.712861         0.224445
 H        -3.372525        -0.083503        -1.170178
 H        -3.565239        -0.357476         0.714634
 H        -4.351657         2.237367        -0.372070
 H        -2.871790         1.631006         2.265636
 H        -2.146507         3.968864         1.930056
 H        -0.792265         2.803408         2.121554
 H        -0.913196         4.795979         0.261339
 H         0.140177         3.258323         0.192690
 H        -2.185862         1.576895        -2.086376
