19
Iteration:  1129charge 0 multiplicity 1
 O        -0.608908         0.037326         0.313180
 C        -1.735857         0.853574         0.123986
 C        -3.216287         0.321183         0.025396
 C        -3.404889         1.896826         0.062343
 C        -2.456307         1.970257         1.212702
 C        -1.905054         3.353774         1.383301
 C        -0.752591         3.495120         0.339901
 O        -1.278630         3.071276        -0.975541
 C        -2.039024         1.893652        -0.930959
 H         0.097180         0.707499        -0.026127
 H        -3.334166        -0.291415        -0.855142
 H        -3.694284        -0.132398         0.894939
 H        -4.433148         2.343453        -0.048360
 H        -2.635670         1.556957         2.215078
 H        -2.615242         4.180167         1.229015
 H        -1.356990         3.487576         2.406079
 H        -0.265748         4.407181         0.152908
 H         0.076170         2.741084         0.699006
 H        -2.115526         1.568423        -1.967859
