19
Iteration:  4727
 O        -0.654129         0.100147         0.376629
 C        -1.763579         0.932473         0.149695
 C        -3.037835         0.247077        -0.267713
 C        -3.318526         1.804237        -0.324279
 C        -2.525236         1.854765         1.142163
 C        -1.830170         3.065222         1.563590
 C        -0.852838         3.475141         0.583866
 O        -1.423254         3.331491        -0.820468
 C        -1.938050         2.019051        -0.923573
 H         0.080906         0.662146         0.451066
 H        -3.031499        -0.308347        -1.210588
 H        -3.629027        -0.301564         0.464193
 H        -4.258536         2.362746        -0.511194
 H        -3.208945         1.469432         1.944753
 H        -2.436075         3.927703         1.886565
 H        -1.274523         2.805013         2.510182
 H        -0.738888         4.568197         0.546810
 H         0.122073         3.023596         0.652859
 H        -1.794277         1.836550        -2.013303
