19
Iteration:   982
 O        -0.709459        -0.053486         0.359711
 C        -1.797190         0.815886         0.186556
 C        -3.243358         0.333773        -0.006595
 C        -3.338895         1.889232        -0.005713
 C        -2.454320         1.901143         1.273777
 C        -1.741867         3.301013         1.482137
 C        -0.889611         3.739903         0.209824
 O        -1.242939         3.083601        -1.063811
 C        -1.980887         1.862230        -0.885158
 H         0.034880         0.491158         0.599874
 H        -3.348602        -0.142349        -1.022150
 H        -3.599863        -0.268338         0.849234
 H        -4.248919         2.377054        -0.265630
 H        -2.783721         1.459349         2.241430
 H        -2.470827         4.123540         1.723725
 H        -0.937707         3.188431         2.286651
 H        -0.913514         4.856114        -0.030029
 H         0.236019         3.537189         0.415359
 H        -1.976880         1.491635        -1.891059
