19
Iteration:  2313
 O        -0.500568         0.353122         0.327671
 C        -1.787020         0.912146         0.127354
 C        -3.204803         0.257500        -0.023907
 C        -3.425625         1.794515        -0.061684
 C        -2.557829         1.962693         1.161505
 C        -1.726706         3.272426         1.492815
 C        -0.732703         3.371602         0.331767
 O        -1.364460         3.057452        -0.910103
 C        -2.070525         1.939929        -0.959989
 H        -0.534249        -0.437865         0.833779
 H        -3.464857        -0.237313        -1.072972
 H        -3.621542        -0.165903         0.959814
 H        -4.238017         2.421215        -0.202280
 H        -2.969268         1.381341         2.062142
 H        -2.325062         4.294790         1.609213
 H        -1.114061         3.095682         2.371737
 H        -0.582777         4.470929         0.084471
 H         0.252448         2.816655         0.573004
 H        -2.094538         1.395604        -2.014885
