19
Iteration:  3803charge 0 multiplicity 1
 O        -0.613082         0.031581         0.521537
 C        -1.700935         0.861584         0.208430
 C        -3.185058         0.331002        -0.093326
 C        -3.368973         1.877403        -0.044449
 C        -2.457199         1.831863         1.226275
 C        -1.798757         3.222865         1.375168
 C        -0.858047         3.496931         0.331158
 O        -1.315526         3.191018        -0.998599
 C        -2.063061         2.039590        -1.010245
 H         0.300968         0.431420         0.295088
 H        -3.324468        -0.031509        -1.108552
 H        -3.616044        -0.333878         0.647241
 H        -4.341055         2.308169        -0.072475
 H        -2.828526         1.494079         2.222784
 H        -2.723539         3.817438         1.433426
 H        -1.224563         3.349092         2.290669
 H        -0.665196         4.576890         0.412307
 H         0.015996         2.927451         0.371204
 H        -2.148287         1.687275        -2.068326
