19
Iteration:  2235
 O        -0.593093         0.048038         0.441166
 C        -1.785738         0.858631         0.209494
 C        -3.202098         0.289281        -0.097494
 C        -3.295462         1.802388        -0.035091
 C        -2.450388         1.870471         1.247836
 C        -1.690401         3.209590         1.477368
 C        -0.801528         3.627380         0.205939
 O        -1.407527         3.230877        -0.999045
 C        -2.047151         1.982364        -0.984498
 H        -0.739673        -0.437743         1.309662
 H        -3.244602        -0.232805        -1.126260
 H        -3.644687        -0.030388         0.896657
 H        -4.276788         2.232397        -0.250414
 H        -2.982918         1.349860         2.119807
 H        -2.592264         3.987182         1.572877
 H        -1.072994         3.278625         2.382277
 H        -0.715775         4.745655         0.043717
 H         0.194676         3.104757         0.466547
 H        -2.234417         1.586805        -2.072640
