19
Iteration:  2177charge 0 multiplicity 1
 O        -0.536100         0.246125         0.254743
 C        -1.835367         0.837157         0.162193
 C        -3.258434         0.256764         0.004824
 C        -3.392876         1.856796         0.032578
 C        -2.479355         1.946867         1.188936
 C        -1.826996         3.288697         1.388519
 C        -0.817357         3.559927         0.307800
 O        -1.213147         3.071700        -0.961569
 C        -2.025760         1.872484        -0.903933
 H        -0.564870        -0.491906         0.899642
 H        -3.453162        -0.417771        -0.865280
 H        -3.611410        -0.311760         0.927488
 H        -4.290568         2.553226        -0.080348
 H        -2.738908         1.376686         2.083531
 H        -2.573774         4.038098         1.535039
 H        -1.227349         3.208486         2.370541
 H        -0.658156         4.605562         0.141946
 H         0.197229         3.166671         0.691123
 H        -2.048569         1.494595        -1.872274
