19
Iteration:  2367
 O        -0.568465         0.018588         0.276749
 C        -1.738631         0.855443         0.172999
 C        -3.130132         0.347640        -0.064654
 C        -3.374910         1.818701        -0.007814
 C        -2.469175         1.935787         1.243955
 C        -1.827833         3.323856         1.518515
 C        -0.770130         3.606482         0.317931
 O        -1.341692         3.156106        -0.981600
 C        -2.082946         1.869422        -0.943195
 H        -0.405628        -0.148086         1.219709
 H        -3.358581        -0.099254        -1.115308
 H        -3.773335        -0.348707         0.455946
 H        -4.224330         2.315484        -0.273241
 H        -2.877299         1.492920         2.197718
 H        -2.673091         4.007408         1.457906
 H        -1.331011         3.503890         2.435288
 H        -0.441545         4.654008         0.017151
 H         0.155592         3.093903         0.628616
 H        -2.374451         1.370216        -1.900828
