19
Iteration:   985charge 0 multiplicity 1
 O        -0.721863        -0.032197         0.360703
 C        -1.789001         0.813917         0.193651
 C        -3.233339         0.332761        -0.031368
 C        -3.323494         1.880565        -0.022155
 C        -2.482671         1.915188         1.273920
 C        -1.715662         3.302041         1.480814
 C        -0.871435         3.737247         0.202509
 O        -1.253499         3.081311        -1.049965
 C        -1.999437         1.841502        -0.869479
 H         0.080607         0.407661         0.684609
 H        -3.306854        -0.134318        -0.997795
 H        -3.598650        -0.236548         0.828976
 H        -4.276664         2.378868        -0.224191
 H        -2.662503         1.405890         2.255945
 H        -2.384010         4.107091         1.752997
 H        -1.040538         3.165004         2.212764
 H        -0.967171         4.773669        -0.009078
 H         0.171773         3.621175         0.380943
 H        -2.031031         1.561538        -1.892342
