19
Iteration:  4874
 O        -0.709107         0.104101         0.476472
 C        -1.725912         0.936883         0.074664
 C        -3.027650         0.240113        -0.408067
 C        -3.345184         1.835429        -0.156836
 C        -2.495755         1.710233         1.171680
 C        -1.888702         3.063263         1.576766
 C        -0.858193         3.541978         0.558721
 O        -1.331221         3.351427        -0.793338
 C        -1.986643         2.079462        -0.963350
 H         0.219576         0.149902         0.030943
 H        -2.866738        -0.030734        -1.485975
 H        -3.442791        -0.556160         0.278992
 H        -4.311257         2.321803        -0.415240
 H        -2.973284         1.231032         2.015796
 H        -2.726292         3.776490         1.512390
 H        -1.483628         3.081975         2.624240
 H        -0.698315         4.630245         0.456507
 H         0.129777         3.096747         0.608044
 H        -1.867569         1.852987        -2.083692
