19
Iteration:  4619charge 0 multiplicity 1
 O        -0.590329         0.189722         0.250339
 C        -1.765793         0.865062         0.152714
 C        -3.100467         0.214282        -0.257806
 C        -3.316709         1.781272        -0.158555
 C        -2.547879         1.858011         1.138804
 C        -1.899782         3.231289         1.555598
 C        -0.828163         3.479224         0.558222
 O        -1.313657         3.272350        -0.795277
 C        -1.991319         1.965764        -0.939282
 H        -0.012397         0.550193         0.872095
 H        -3.265355        -0.319711        -1.232999
 H        -3.772503        -0.201796         0.542051
 H        -4.169448         2.398255        -0.441867
 H        -2.976195         1.328502         1.987751
 H        -2.678250         4.026752         1.456646
 H        -1.570229         3.110740         2.598121
 H        -0.234868         4.398517         0.346923
 H         0.023399         2.707365         0.694173
 H        -2.074251         1.600039        -1.997573
