19
Iteration:  1194
 O        -0.560500         0.219577         0.617299
 C        -1.847903         0.829663         0.200661
 C        -3.328904         0.382224        -0.054551
 C        -3.336880         1.929414        -0.154966
 C        -2.376082         1.848595         1.215127
 C        -1.601241         3.103906         1.491141
 C        -0.914960         3.578365         0.248330
 O        -1.345290         3.086422        -1.042791
 C        -2.066031         1.901807        -1.011054
 H         0.070778         0.063489        -0.078853
 H        -3.479553        -0.215022        -0.948883
 H        -3.866084        -0.044206         0.784139
 H        -4.263405         2.506598        -0.184917
 H        -2.713969         1.361409         2.114438
 H        -2.390701         3.785256         1.688318
 H        -0.840895         2.887003         2.340698
 H        -0.975820         4.631242         0.256137
 H         0.240724         3.395352         0.300610
 H        -2.221706         1.571321        -1.971920
