19
Iteration:  1902
 O        -0.512878         0.424289         0.424898
 C        -1.830416         0.864273         0.256489
 C        -3.192640         0.322477        -0.051913
 C        -3.419852         1.788937        -0.126481
 C        -2.507674         1.958686         1.248776
 C        -1.601931         3.167557         1.472611
 C        -0.737706         3.377797         0.230240
 O        -1.415296         3.139019        -1.003774
 C        -2.145941         1.848358        -0.941130
 H        -0.588907        -0.188189         1.170933
 H        -3.298999        -0.090833        -1.120218
 H        -3.810654        -0.160666         0.735118
 H        -4.425278         2.221877        -0.541066
 H        -3.002413         1.389710         2.028788
 H        -2.138109         4.059984         1.717728
 H        -0.935295         2.970217         2.402418
 H        -0.288753         4.428973         0.302050
 H         0.152596         2.695781         0.197215
 H        -2.176576         1.461275        -1.992426
