19
Iteration:    47charge 0 multiplicity 1
 O        -0.825221        -0.145492         0.440312
 C        -1.812101         0.850992         0.285407
 C        -3.277788         0.460039         0.104003
 C        -3.274263         2.024246        -0.020509
 C        -2.337121         1.937803         1.296552
 C        -1.495049         3.267816         1.361504
 C        -1.421157         3.865614         0.006334
 O        -0.963992         2.840868        -0.971055
 C        -1.894909         1.804400        -0.903446
 H        -0.002935         0.338757         0.188150
 H        -3.590461        -0.105772        -0.792904
 H        -3.643284         0.000125         0.966750
 H        -4.104161         2.751518        -0.427961
 H        -2.677707         1.566211         2.208857
 H        -2.129706         3.991471         1.881586
 H        -0.571527         3.202210         1.889687
 H        -2.369448         4.223476        -0.248002
 H        -0.718639         4.752295        -0.080237
 H        -2.001984         1.325018        -1.940985
