19
Iteration:  4861
 O        -0.620334         0.015545         0.416546
 C        -1.734988         0.873345         0.127054
 C        -2.993693         0.271614        -0.354218
 C        -3.308457         1.828235        -0.251907
 C        -2.533498         1.819597         1.119409
 C        -1.932054         3.109791         1.616156
 C        -0.919657         3.538977         0.559101
 O        -1.322083         3.349829        -0.822317
 C        -2.003291         2.087516        -0.956713
 H         0.069236         0.574854         0.140054
 H        -3.179244        -0.232865        -1.312337
 H        -3.446619        -0.315529         0.477362
 H        -4.189444         2.463069        -0.265839
 H        -3.000711         1.132952         1.837895
 H        -2.662031         3.867603         1.938083
 H        -1.259314         2.944666         2.468374
 H        -0.584889         4.524572         0.845121
 H        -0.111444         2.770292         0.798137
 H        -2.047231         1.805371        -2.036815
