19
Iteration:  4997charge 0 multiplicity 1
 O        -0.569832         0.132426         0.348722
 C        -1.721485         0.964941         0.054974
 C        -3.054832         0.375844        -0.405310
 C        -3.281301         1.815360        -0.145482
 C        -2.500694         1.680571         1.152897
 C        -2.030599         3.081969         1.585637
 C        -0.919518         3.498675         0.599900
 O        -1.257875         3.254133        -0.814116
 C        -1.996291         2.088920        -0.970162
 H        -0.340317         0.312891         1.320127
 H        -3.171877         0.058972        -1.498727
 H        -3.476242        -0.306941         0.400366
 H        -4.192007         2.381447        -0.298651
 H        -3.022496         1.182709         1.995559
 H        -2.969474         3.648764         1.698425
 H        -1.491928         3.075433         2.601233
 H        -0.629621         4.608267         0.777438
 H        -0.038947         2.872090         0.703236
 H        -1.957276         1.636698        -2.024296
