19
Iteration:  4581charge 0 multiplicity 1
 O        -0.567881         0.283636         0.484611
 C        -1.720860         0.889070         0.142021
 C        -3.051654         0.273640        -0.305722
 C        -3.364677         1.842540        -0.080580
 C        -2.511566         1.744125         1.170212
 C        -1.883231         3.059377         1.532108
 C        -0.802920         3.493912         0.376454
 O        -1.298701         3.224900        -0.897166
 C        -2.068939         2.053653        -0.918039
 H        -0.812708        -0.638182         0.288732
 H        -3.171187         0.160519        -1.377498
 H        -3.727960        -0.317234         0.313966
 H        -4.244576         2.508879        -0.230772
 H        -2.986821         1.199850         2.075075
 H        -2.765206         3.723721         1.615100
 H        -1.381298         3.112382         2.531192
 H        -0.686385         4.554917         0.564287
 H         0.094710         2.966766         0.562643
 H        -2.193696         2.049537        -2.031057
