19
Iteration:  3153charge 0 multiplicity 1
 O        -0.640667         0.119949         0.403858
 C        -1.819658         0.902508         0.259933
 C        -3.151595         0.226179        -0.041522
 C        -3.413771         1.849395        -0.103212
 C        -2.475040         1.894256         1.215672
 C        -1.712649         3.200651         1.486503
 C        -0.780845         3.555766         0.253509
 O        -1.394017         3.187341        -1.010947
 C        -2.024186         1.956437        -0.917027
 H         0.103304         0.479426        -0.042018
 H        -3.192512        -0.439673        -1.004517
 H        -3.673084        -0.247396         0.829976
 H        -4.194205         2.438185        -0.521215
 H        -2.840932         1.473638         2.169025
 H        -2.246234         3.988404         2.052663
 H        -0.995465         2.884593         2.202274
 H        -0.663912         4.646043         0.406701
 H         0.221565         3.084671         0.403355
 H        -2.036359         1.480381        -1.925549
