19
Iteration:  4364
 O        -0.624144         0.109129         0.499154
 C        -1.738476         0.921077         0.187986
 C        -3.111770         0.310797        -0.203986
 C        -3.303837         1.790484        -0.134539
 C        -2.475367         1.811674         1.200995
 C        -1.819829         3.241988         1.563114
 C        -0.861880         3.524317         0.381216
 O        -1.378457         3.260277        -0.966919
 C        -2.034462         1.999177        -0.973912
 H        -0.373310        -0.061807        -0.413851
 H        -3.178156        -0.302070        -1.095792
 H        -3.585613        -0.220092         0.633170
 H        -4.366894         2.061265        -0.287514
 H        -2.877066         1.223530         1.967826
 H        -2.393580         4.151501         1.710002
 H        -1.200836         2.929891         2.375689
 H        -0.313331         4.471668         0.379608
 H        -0.059269         2.804956         0.652157
 H        -2.061800         1.572784        -1.977526
