19
Iteration:  3517charge 0 multiplicity 1
 O        -0.546216         0.050177         0.453619
 C        -1.784913         0.858370         0.136184
 C        -3.196885         0.304752        -0.171359
 C        -3.318735         1.894850        -0.088682
 C        -2.396822         1.813041         1.206063
 C        -1.754912         3.181422         1.518022
 C        -0.955635         3.645711         0.338260
 O        -1.285048         3.200768        -0.996449
 C        -2.009766         1.995193        -0.921502
 H        -0.914126        -0.771742         0.794672
 H        -3.185039        -0.186355        -1.134094
 H        -3.827569        -0.183515         0.620193
 H        -4.355171         2.477567        -0.223713
 H        -2.921058         1.431707         2.121756
 H        -2.676115         3.865908         1.573744
 H        -1.203746         3.207040         2.418608
 H        -0.978747         4.767990         0.406593
 H         0.100691         3.252564         0.423252
 H        -2.310156         1.532829        -1.819377
