19
Iteration:   876
 O        -0.561447         0.448904         0.647926
 C        -1.788454         0.818495         0.209691
 C        -3.293687         0.306522        -0.040222
 C        -3.448253         1.818753        -0.179425
 C        -2.415305         1.910382         1.133285
 C        -1.567020         3.080828         1.468409
 C        -0.672804         3.440211         0.236463
 O        -1.422859         3.147741        -0.984975
 C        -2.189743         1.945104        -1.026521
 H        -0.405626        -0.430069         0.409529
 H        -3.404107        -0.254109        -0.942481
 H        -3.726073        -0.178618         0.853596
 H        -4.365959         2.404289        -0.458887
 H        -2.752663         1.471482         2.118502
 H        -2.300790         3.844043         1.822353
 H        -0.991864         2.892236         2.332356
 H        -0.081484         4.319985         0.041255
 H         0.039190         2.674201         0.409323
 H        -2.357649         1.608331        -2.104716
