19
Iteration:  1256
 O        -0.673587         0.089491         0.521440
 C        -1.781603         0.844928         0.208001
 C        -3.142429         0.297912        -0.057744
 C        -3.302697         1.842864        -0.047872
 C        -2.441185         1.936423         1.193738
 C        -1.656868         3.231921         1.397047
 C        -0.807075         3.530782         0.230329
 O        -1.480129         3.242362        -0.989879
 C        -1.977464         1.928806        -0.937408
 H        -1.015280        -0.794366         0.426244
 H        -3.320357        -0.239459        -1.017807
 H        -3.484979        -0.302074         0.830494
 H        -4.156305         2.430709        -0.397874
 H        -2.799539         1.575934         2.202770
 H        -2.475689         3.977899         1.635207
 H        -1.046861         3.200653         2.308399
 H        -0.560864         4.633500         0.168208
 H         0.152877         3.027412         0.243290
 H        -2.119962         1.549241        -2.029957
