19
Iteration:  3844charge 0 multiplicity 1
 O        -0.714453        -0.138809         0.358303
 C        -1.746373         0.893967         0.279182
 C        -3.180264         0.307625        -0.116025
 C        -3.304260         1.767855        -0.140556
 C        -2.411121         1.985353         1.192501
 C        -1.694995         3.260791         1.477364
 C        -0.940293         3.752587         0.262067
 O        -1.391019         3.181041        -0.897619
 C        -1.930797         1.891280        -0.914354
 H         0.039559         0.267632         0.788005
 H        -3.207427        -0.243205        -1.052861
 H        -3.732440        -0.259031         0.733991
 H        -4.198121         2.399250        -0.309060
 H        -3.114542         1.638783         1.958007
 H        -2.353744         4.061830         1.620311
 H        -0.987663         3.188735         2.304001
 H        -1.100173         4.831717         0.164701
 H         0.155197         3.416250         0.599861
 H        -1.916296         1.425497        -1.957456
