19
Iteration:  3811
 O        -0.645258        -0.042966         0.513630
 C        -1.728657         0.929796         0.189134
 C        -3.178678         0.306156        -0.125153
 C        -3.307334         1.804309        -0.032456
 C        -2.427350         1.859041         1.223668
 C        -1.816893         3.209945         1.455885
 C        -0.859051         3.580174         0.321854
 O        -1.332999         3.211675        -1.031260
 C        -2.042950         2.002169        -0.987948
 H         0.290464         0.365576         0.376112
 H        -3.383524        -0.248539        -1.036453
 H        -3.646814        -0.186179         0.809985
 H        -4.253445         2.402418        -0.060503
 H        -3.105722         1.434753         1.969251
 H        -2.532561         3.981345         1.430397
 H        -1.273975         3.436657         2.350809
 H        -0.632040         4.628918         0.290455
 H         0.198636         3.113019         0.389740
 H        -2.275086         1.792209        -2.071803
