19
Iteration:  1665
 O        -0.619394         0.027330         0.369565
 C        -1.747447         0.859022         0.261235
 C        -3.213032         0.276875        -0.051263
 C        -3.287806         1.906515        -0.044421
 C        -2.368485         1.882739         1.246001
 C        -1.805589         3.299808         1.393805
 C        -0.847475         3.641038         0.243594
 O        -1.337295         3.128626        -0.954125
 C        -2.054710         1.968112        -0.930244
 H        -0.736255        -0.888605         0.453511
 H        -3.208795        -0.250437        -1.034355
 H        -3.703291        -0.246365         0.799351
 H        -4.250584         2.500258        -0.136820
 H        -2.775693         1.455205         2.190981
 H        -2.774129         3.968930         1.428802
 H        -1.289001         3.484172         2.288265
 H        -0.687021         4.660509         0.009942
 H         0.105273         3.113126         0.539141
 H        -2.070305         1.427537        -1.906921
