19
Iteration:  4531charge 0 multiplicity 1
 O        -0.596423         0.104314         0.298890
 C        -1.789062         0.850925         0.201613
 C        -3.083655         0.227252        -0.214159
 C        -3.333362         1.864759        -0.260203
 C        -2.609119         1.868593         1.123842
 C        -1.711759         3.134377         1.518716
 C        -0.838246         3.592716         0.486379
 O        -1.433341         3.244016        -0.800755
 C        -1.961151         1.933739        -0.928552
 H        -0.244250         0.687830         1.025803
 H        -3.134876        -0.459033        -1.091434
 H        -3.591106        -0.049780         0.708821
 H        -4.182681         2.474066        -0.513468
 H        -3.106335         1.646927         2.023609
 H        -2.400360         3.949182         1.813585
 H        -1.231310         2.794280         2.431784
 H        -0.790694         4.700593         0.538381
 H         0.229128         3.164594         0.594135
 H        -1.755809         1.572694        -1.935127
