19
Iteration:  1398charge 0 multiplicity 1
 O        -0.736362        -0.068220         0.548336
 C        -1.768740         0.916496         0.223716
 C        -3.086727         0.293697        -0.077951
 C        -3.429485         1.798242        -0.092639
 C        -2.443932         1.930326         1.176346
 C        -1.586753         3.174272         1.426615
 C        -0.749001         3.633953         0.204975
 O        -1.400190         3.228153        -1.021445
 C        -2.163058         1.975598        -0.915103
 H        -0.113783         0.403580         1.094524
 H        -3.093773        -0.206417        -1.045810
 H        -3.499966        -0.349095         0.721494
 H        -4.388635         2.195267        -0.275220
 H        -2.776543         1.442861         2.133134
 H        -2.177467         4.127466         1.635774
 H        -1.044550         3.085022         2.285899
 H        -0.708556         4.760221         0.112499
 H         0.308429         3.422648         0.275556
 H        -2.193977         1.608603        -2.016553
