19
Iteration:  2318
 O        -0.488069         0.349468         0.313907
 C        -1.811561         0.907087         0.127432
 C        -3.225708         0.272831        -0.039429
 C        -3.432905         1.795978        -0.063227
 C        -2.518309         1.947688         1.172097
 C        -1.736921         3.267359         1.528190
 C        -0.735675         3.393661         0.382857
 O        -1.340982         3.056845        -0.952041
 C        -2.091301         1.919583        -0.976140
 H        -0.629622        -0.441037         0.919575
 H        -3.520278        -0.309556        -0.841143
 H        -3.464013        -0.335643         0.805707
 H        -4.303603         2.505353        -0.345815
 H        -2.854833         1.520727         2.088336
 H        -2.324703         4.149211         1.452677
 H        -1.152653         3.391629         2.492407
 H        -0.545294         4.423350         0.214469
 H         0.215530         2.904012         0.411851
 H        -2.121469         1.373672        -1.871524
