19
Iteration:  3437
 O        -0.569175         0.133449         0.360266
 C        -1.825496         0.886489         0.181873
 C        -3.197223         0.274408        -0.109196
 C        -3.388865         1.820668        -0.116209
 C        -2.486855         1.867945         1.196968
 C        -1.701448         3.173083         1.496228
 C        -0.863731         3.545795         0.344005
 O        -1.316645         3.196767        -0.951972
 C        -2.025220         1.934563        -0.927952
 H        -0.327180         0.631241         1.159880
 H        -3.542845        -0.151507        -1.013461
 H        -3.573522        -0.232657         0.728389
 H        -4.233557         2.274363        -0.575158
 H        -2.974929         1.562169         2.118542
 H        -2.394757         4.015130         1.868216
 H        -1.098216         3.022131         2.447751
 H        -0.658618         4.660775         0.244651
 H         0.229641         3.147604         0.402826
 H        -1.982987         1.475122        -2.004845
