19
Iteration:  4197
 O        -0.595300         0.262941         0.569323
 C        -1.784765         0.879464         0.143004
 C        -3.176803         0.361704        -0.213056
 C        -3.391045         1.878016        -0.111004
 C        -2.355469         1.807547         1.185138
 C        -1.758151         3.191081         1.458593
 C        -0.816478         3.499921         0.365800
 O        -1.380903         3.120331        -0.934138
 C        -2.080316         1.932536        -0.926025
 H        -0.288034        -0.291314        -0.102241
 H        -3.202184        -0.194013        -1.180729
 H        -3.630688        -0.356087         0.465846
 H        -4.356591         2.441642        -0.185656
 H        -2.682699         1.278250         2.050568
 H        -2.540802         4.014055         1.414093
 H        -1.317944         3.161872         2.500621
 H        -0.682008         4.615416         0.404892
 H         0.141286         2.836212         0.350162
 H        -2.061806         1.492314        -1.996784
