19
Iteration:   774charge 0 multiplicity 1
 O        -0.682277        -0.002133         0.341341
 C        -1.766396         0.904383         0.228827
 C        -3.183158         0.337436         0.050408
 C        -3.333967         1.824299         0.035703
 C        -2.440822         1.991579         1.270469
 C        -1.828260         3.381854         1.432630
 C        -0.795373         3.609437         0.274403
 O        -1.175472         2.985316        -1.034287
 C        -2.093917         1.888869        -0.919055
 H        -0.210490         0.255079        -0.521858
 H        -3.250710        -0.150741        -0.989550
 H        -3.743154        -0.352799         0.696235
 H        -4.268284         2.293719        -0.195601
 H        -3.050120         1.565777         2.168039
 H        -2.762190         3.967349         1.249076
 H        -1.297300         3.708361         2.278705
 H        -0.823563         4.725509        -0.054694
 H         0.192678         3.218737         0.628243
 H        -2.348835         1.499601        -1.940997
