19
Iteration:  1702charge 0 multiplicity 1
 O        -0.513328         0.223378         0.462724
 C        -1.827573         0.903111         0.246637
 C        -3.145008         0.256575        -0.083900
 C        -3.413143         1.843891        -0.084695
 C        -2.462228         1.897061         1.232016
 C        -1.708467         3.292164         1.422457
 C        -0.764044         3.415804         0.259920
 O        -1.385692         3.158790        -0.972574
 C        -2.123237         1.979256        -0.974179
 H        -0.874224        -0.685982         0.404866
 H        -3.179693        -0.371741        -1.016552
 H        -3.790930        -0.276944         0.676933
 H        -4.303697         2.419649        -0.103623
 H        -2.861026         1.485467         2.175435
 H        -2.360657         4.084351         1.578648
 H        -1.079050         3.129510         2.398169
 H        -0.242576         4.462915         0.054137
 H         0.037104         2.668515         0.454726
 H        -2.230598         1.652156        -1.979719
