19
Iteration:  4640
 O        -0.535455         0.086342         0.288631
 C        -1.722481         0.925927         0.157463
 C        -3.050098         0.328637        -0.088210
 C        -3.445444         1.834435        -0.280723
 C        -2.610928         1.896884         1.123292
 C        -1.924042         3.134029         1.583712
 C        -0.874974         3.435811         0.515444
 O        -1.298283         3.237164        -0.770004
 C        -1.921688         1.991544        -0.975423
 H         0.137944         0.501613        -0.394244
 H        -3.179742        -0.129640        -1.109230
 H        -3.564634        -0.324735         0.625939
 H        -4.321961         2.414755        -0.572684
 H        -3.219856         1.475305         1.934838
 H        -2.722115         3.920502         1.666263
 H        -1.384110         3.033195         2.544501
 H        -0.648417         4.555747         0.585772
 H         0.138431         2.978753         0.711561
 H        -1.894540         1.557307        -2.007857
