19
Iteration:  4240
 O        -0.580592         0.100228         0.308488
 C        -1.754389         0.969003         0.274440
 C        -3.104454         0.285052        -0.061019
 C        -3.432996         1.796676        -0.239295
 C        -2.504549         1.948677         1.172729
 C        -1.738161         3.215469         1.477797
 C        -0.779354         3.511260         0.370634
 O        -1.425248         3.205422        -0.873054
 C        -2.004796         1.921606        -0.963489
 H        -0.674528        -0.493176         1.047382
 H        -3.095216        -0.305234        -0.975418
 H        -3.576845        -0.289732         0.721366
 H        -4.243871         2.441499        -0.584275
 H        -2.958088         1.449069         2.010874
 H        -2.591919         3.906821         1.648386
 H        -1.171146         3.220375         2.459490
 H        -0.692341         4.602204         0.357446
 H         0.161100         2.931510         0.705306
 H        -1.836398         1.605624        -2.040384
