19
Iteration:  2412charge 0 multiplicity 1
 O        -0.570918         0.138790         0.426658
 C        -1.759253         0.856926         0.231969
 C        -3.231504         0.335789        -0.062973
 C        -3.334262         1.830823        -0.105131
 C        -2.439410         1.862771         1.172585
 C        -1.723371         3.162447         1.531048
 C        -0.794810         3.631931         0.264217
 O        -1.412832         3.190265        -1.034062
 C        -2.042847         1.959043        -0.935157
 H        -0.584017        -0.597130         1.105377
 H        -3.414914        -0.278073        -0.965155
 H        -3.741467        -0.294464         0.593297
 H        -4.273984         2.234229        -0.157157
 H        -2.873470         1.274918         2.037112
 H        -2.268914         4.073629         1.720884
 H        -1.218515         2.817171         2.361530
 H        -0.747795         4.745277         0.297420
 H         0.247652         3.297415         0.256875
 H        -2.073950         1.519933        -1.991701
