19
Iteration:  1871charge 0 multiplicity 1
 O        -0.544191         0.171350         0.419407
 C        -1.809007         0.847208         0.171184
 C        -3.203790         0.362378        -0.017845
 C        -3.438284         1.838226        -0.021364
 C        -2.410908         1.847834         1.189242
 C        -1.724732         3.193297         1.390759
 C        -0.781788         3.581637         0.233513
 O        -1.300086         3.126384        -0.990089
 C        -2.125950         1.911859        -0.907443
 H        -0.559430        -0.025960         1.401583
 H        -3.367564        -0.147640        -0.963630
 H        -3.736138        -0.084708         0.788838
 H        -4.477251         2.355656        -0.036602
 H        -2.793774         1.328111         2.067897
 H        -2.431331         4.020356         1.442248
 H        -1.150573         3.205934         2.301601
 H        -0.670927         4.657511         0.173717
 H         0.195826         3.060052         0.235913
 H        -2.158280         1.603458        -2.038779
