19
Iteration:  1519
 O        -0.516044         0.189418         0.355565
 C        -1.779812         0.900621         0.276035
 C        -3.232558         0.303543        -0.095802
 C        -3.327902         1.902352        -0.096877
 C        -2.477253         1.935621         1.230072
 C        -1.713562         3.326581         1.460078
 C        -0.747014         3.349792         0.289259
 O        -1.483888         3.152613        -0.950912
 C        -2.028198         1.878246        -0.908282
 H        -0.523261        -0.720777         0.855546
 H        -3.288054        -0.276007        -1.001137
 H        -3.695066        -0.284595         0.686123
 H        -4.174501         2.559959        -0.247515
 H        -3.074676         1.522034         2.073614
 H        -2.543149         4.119413         1.045354
 H        -1.354280         3.738886         2.357729
 H        -0.272531         4.361282         0.396208
 H         0.049301         2.576698         0.231403
 H        -2.044582         1.502143        -2.020487
