19
Iteration:   653charge 0 multiplicity 1
 O        -0.723009        -0.082747         0.583542
 C        -1.729848         0.788712         0.195205
 C        -3.231915         0.330968         0.022995
 C        -3.366091         1.858136        -0.028686
 C        -2.389126         1.979874         1.127045
 C        -1.618780         3.308785         1.409775
 C        -0.780419         3.661597         0.216556
 O        -1.470614         3.184167        -1.074013
 C        -1.992430         1.864206        -1.016279
 H        -0.039993         0.469210         1.029346
 H        -3.437327        -0.493023        -0.719538
 H        -3.676159        -0.014557         0.963919
 H        -4.202873         2.413736        -0.353565
 H        -2.815497         1.611983         2.122791
 H        -2.474981         4.100610         1.633988
 H        -1.092979         3.155527         2.360211
 H        -0.664289         4.761215         0.130932
 H         0.161420         3.159654         0.335877
 H        -1.959255         1.424132        -2.076559
