19
Iteration:  4516charge 0 multiplicity 1
 O        -0.608134         0.159690         0.352687
 C        -1.750809         0.900969         0.173232
 C        -3.142932         0.268999        -0.235707
 C        -3.361042         1.769066        -0.189850
 C        -2.517641         1.857875         1.160520
 C        -1.828901         3.121399         1.608276
 C        -0.827548         3.575475         0.394765
 O        -1.336801         3.274719        -0.898787
 C        -1.968104         2.000695        -0.908181
 H        -0.368346        -0.239995         1.265189
 H        -3.144532        -0.143822        -1.259746
 H        -3.597156        -0.406572         0.500173
 H        -4.343534         2.262708        -0.398745
 H        -3.031336         1.216503         1.951132
 H        -2.544575         3.932614         1.862117
 H        -1.182926         3.006209         2.507090
 H        -0.626719         4.652953         0.405241
 H         0.105086         2.995000         0.511555
 H        -1.979222         1.575824        -1.944461
