19
Iteration:  2101
 O        -0.588871         0.254429         0.441962
 C        -1.794855         0.906677         0.212716
 C        -3.162803         0.227479         0.007347
 C        -3.390495         1.836634        -0.169482
 C        -2.521929         1.924423         1.205350
 C        -1.639877         3.126822         1.410568
 C        -0.717772         3.486200         0.208517
 O        -1.473839         3.210085        -0.948382
 C        -2.031980         1.952776        -0.921652
 H        -0.733355        -0.347673         1.183899
 H        -3.221645        -0.435080        -0.855411
 H        -3.506381        -0.262569         0.956962
 H        -4.230512         2.576473        -0.330477
 H        -2.994762         1.376242         2.007782
 H        -2.376942         3.917710         1.554110
 H        -0.976070         2.984527         2.309637
 H        -0.505148         4.503036         0.097317
 H         0.180788         2.905042         0.330841
 H        -2.115437         1.554649        -1.892825
