19
Iteration:  1463
 O        -0.623862         0.248314         0.366759
 C        -1.820193         0.875161         0.205125
 C        -3.263147         0.301446        -0.040996
 C        -3.338530         1.837482        -0.040984
 C        -2.461586         1.903653         1.229308
 C        -1.750490         3.274429         1.497158
 C        -0.796408         3.635295         0.224056
 O        -1.202691         2.994762        -0.982475
 C        -2.061493         1.861463        -0.890963
 H        -0.511639        -0.604985        -0.046572
 H        -3.439723        -0.055981        -1.035465
 H        -3.708264        -0.222347         0.788305
 H        -4.211647         2.350267        -0.303889
 H        -2.966610         1.369541         2.058000
 H        -2.567194         4.070368         1.826126
 H        -1.173090         3.116921         2.379777
 H        -0.840921         4.777058         0.253884
 H         0.259566         3.330999         0.377270
 H        -2.302370         1.439599        -1.933554
