19
Iteration:  1854charge 0 multiplicity 1
 O        -0.642517         0.001035         0.312323
 C        -1.721366         0.866284         0.267741
 C        -3.223762         0.253114        -0.037334
 C        -3.313960         1.850315         0.001130
 C        -2.405821         1.943597         1.262276
 C        -1.771210         3.294272         1.403286
 C        -0.836157         3.604597         0.282017
 O        -1.321185         3.114924        -1.069736
 C        -2.065628         1.975964        -0.925860
 H        -0.336062        -0.014368         1.291591
 H        -3.450583        -0.215231        -1.024209
 H        -3.556309        -0.235285         0.936973
 H        -4.114071         2.475777        -0.261649
 H        -2.911322         1.480449         2.175801
 H        -2.690994         3.935255         1.547541
 H        -1.255063         3.390250         2.405590
 H        -0.803057         4.715633         0.126282
 H         0.201315         3.263580         0.482566
 H        -2.203129         1.610892        -1.908113
