19
Iteration:  2613charge 0 multiplicity 1
 O        -0.609853         0.160046         0.435747
 C        -1.778638         0.880967         0.166256
 C        -3.204197         0.251882        -0.173108
 C        -3.360367         1.846558        -0.025791
 C        -2.450396         1.957267         1.172074
 C        -1.629309         3.165999         1.544403
 C        -0.843535         3.539564         0.291815
 O        -1.373054         3.181754        -0.993262
 C        -2.058312         1.906536        -0.963074
 H        -0.538976         0.166252         1.360856
 H        -3.255040        -0.124846        -1.185950
 H        -3.689493        -0.460440         0.525372
 H        -4.389011         2.377722        -0.294635
 H        -2.688868         1.406864         2.181128
 H        -2.377659         3.952112         1.838400
 H        -1.079035         3.105947         2.435400
 H        -0.912941         4.591588         0.206185
 H         0.183875         3.084236         0.451696
 H        -2.223960         1.575015        -2.051151
