19
Iteration:  1409
 O        -0.770490        -0.025912         0.580442
 C        -1.824837         0.910000         0.189607
 C        -3.100997         0.195176        -0.087040
 C        -3.391745         1.898573        -0.054644
 C        -2.346893         1.939734         1.186391
 C        -1.614409         3.204285         1.439579
 C        -0.832768         3.662990         0.224042
 O        -1.360940         3.204286        -1.024791
 C        -2.092552         1.944226        -0.981346
 H         0.061268         0.417786         0.592028
 H        -3.184532        -0.342386        -1.025801
 H        -3.663202        -0.248127         0.748491
 H        -4.376108         2.241089        -0.127880
 H        -2.753338         1.469277         2.126396
 H        -2.365557         3.955975         1.938395
 H        -0.914902         2.879544         2.083989
 H        -0.875982         4.795415         0.321780
 H         0.139033         3.215032         0.195316
 H        -2.116778         1.427747        -2.037981
