19
Iteration:  1559charge 0 multiplicity 1
 O        -0.637172         0.214040         0.461679
 C        -1.804007         0.914260         0.201773
 C        -3.200391         0.192693         0.004183
 C        -3.438205         1.805259        -0.123852
 C        -2.472501         1.887008         1.191692
 C        -1.633801         3.139577         1.513285
 C        -0.750318         3.511890         0.231299
 O        -1.285690         3.229735        -1.033813
 C        -2.124384         1.978595        -1.041474
 H        -0.694531         0.023813         1.367685
 H        -3.337958        -0.395578        -0.920145
 H        -3.585224        -0.365722         0.893244
 H        -4.284603         2.447454        -0.158742
 H        -3.070896         1.483912         2.001429
 H        -2.265364         3.945516         1.765147
 H        -0.953440         2.958133         2.529756
 H        -0.623767         4.661877         0.174617
 H         0.276059         3.236402         0.447403
 H        -2.206582         1.483820        -1.976007
