19
Iteration:  2836charge 0 multiplicity 1
 O        -0.574999         0.288695         0.417271
 C        -1.810085         0.956400         0.159995
 C        -3.182813         0.166462        -0.034876
 C        -3.418785         1.856191        -0.032586
 C        -2.566153         1.834636         1.245330
 C        -1.743605         3.174748         1.401252
 C        -0.721192         3.449516         0.279326
 O        -1.269576         3.161338        -0.952048
 C        -2.084988         1.998784        -0.887547
 H        -0.252722        -0.130895        -0.415035
 H        -3.370966        -0.180549        -1.059656
 H        -3.484174        -0.512419         0.711570
 H        -4.362350         2.384480        -0.326902
 H        -3.072534         1.418454         2.228057
 H        -2.615631         3.874211         1.289134
 H        -1.275666         3.259031         2.400077
 H        -0.375966         4.557470         0.248978
 H         0.217579         2.975272         0.548741
 H        -2.157086         1.646430        -1.928503
