19
Iteration:  2140
 O        -0.528802         0.246591         0.357104
 C        -1.784360         0.909611         0.198418
 C        -3.128264         0.208525        -0.090905
 C        -3.411804         1.878756         0.037075
 C        -2.497212         1.937484         1.211408
 C        -1.809063         3.314046         1.374721
 C        -0.747195         3.399625         0.270513
 O        -1.361617         3.113069        -0.942541
 C        -2.100880         1.921162        -0.910676
 H        -0.607182        -0.557485         0.982498
 H        -3.267226        -0.336476        -1.037703
 H        -3.539416        -0.427615         0.698878
 H        -4.210289         2.559708        -0.180221
 H        -2.859317         1.650172         2.202891
 H        -2.416204         4.235417         1.461578
 H        -1.298248         3.282228         2.343090
 H        -0.185378         4.387291         0.202925
 H         0.030237         2.577900         0.400005
 H        -2.250841         1.776318        -2.092625
