19
Iteration:  2519charge 0 multiplicity 1
 O        -0.573187         0.158854         0.292603
 C        -1.748497         0.830802         0.199853
 C        -3.132015         0.237335        -0.164826
 C        -3.372467         1.804316         0.056429
 C        -2.532771         1.926963         1.292230
 C        -1.842648         3.296304         1.428285
 C        -0.745942         3.542062         0.249717
 O        -1.310389         3.167229        -0.993650
 C        -2.054945         1.963633        -0.818721
 H        -0.700442        -0.773939         0.696348
 H        -3.275442        -0.355629        -1.138972
 H        -3.685846        -0.134596         0.731258
 H        -4.233718         2.398423        -0.154641
 H        -2.980720         1.600445         2.222244
 H        -2.503016         4.173677         1.377728
 H        -1.413878         3.335296         2.528704
 H        -0.345768         4.619229         0.206020
 H         0.055740         2.806706         0.355020
 H        -2.219131         1.627060        -1.823447
