19
Iteration:  4700charge 0 multiplicity 1
 O        -0.547996         0.132547         0.453682
 C        -1.717222         0.878531         0.100277
 C        -3.121369         0.333940        -0.399251
 C        -3.354966         1.803131        -0.134060
 C        -2.496953         1.707316         1.159128
 C        -1.902122         3.088054         1.548633
 C        -0.860076         3.576880         0.503915
 O        -1.314926         3.291418        -0.893313
 C        -2.006453         2.053859        -0.907362
 H        -0.574102         0.024142         1.370719
 H        -3.272633         0.111748        -1.470054
 H        -3.626325        -0.386094         0.268663
 H        -4.234396         2.448511        -0.191502
 H        -3.086616         1.243334         1.950755
 H        -2.601904         3.860148         1.893609
 H        -1.287928         2.811537         2.426153
 H        -0.744402         4.638606         0.342071
 H         0.176241         3.030701         0.673555
 H        -2.021999         1.863350        -1.984202
