19
Iteration:  2585
 O        -0.588397         0.103716         0.345487
 C        -1.721991         0.907061         0.274405
 C        -3.252982         0.307670        -0.098203
 C        -3.410718         1.828367        -0.116773
 C        -2.537111         1.917597         1.181208
 C        -1.650473         3.102988         1.454482
 C        -0.837466         3.630707         0.278102
 O        -1.334092         3.181926        -1.005330
 C        -2.014292         1.934084        -0.859671
 H        -0.234870         0.084031         1.225703
 H        -3.238643        -0.340748        -1.014673
 H        -3.829259        -0.149172         0.718077
 H        -4.302337         2.292942        -0.276148
 H        -2.844218         1.438778         2.064231
 H        -2.390369         3.822690         1.844346
 H        -1.031989         2.837182         2.414941
 H        -0.996161         4.755038         0.196206
 H         0.218459         3.424382         0.511115
 H        -2.085839         1.451030        -1.795411
