19
Iteration:  1438charge 0 multiplicity 1
 O        -0.541310         0.074293         0.520128
 C        -1.749760         0.840399         0.254520
 C        -3.316985         0.388056        -0.073185
 C        -3.345218         1.970287        -0.098337
 C        -2.431765         1.883823         1.229613
 C        -1.695412         3.151787         1.453381
 C        -0.854052         3.639800         0.215677
 O        -1.367607         3.097452        -1.020323
 C        -2.010141         1.851694        -0.925638
 H        -0.037469        -0.149254        -0.331614
 H        -3.538802        -0.110879        -1.019524
 H        -3.924617         0.093378         0.783986
 H        -4.288796         2.489559        -0.406836
 H        -2.908080         1.468212         2.122366
 H        -2.553387         3.819632         1.816743
 H        -1.011221         3.043119         2.417463
 H        -1.171898         4.746485         0.295892
 H         0.262463         3.530969         0.242664
 H        -2.037438         1.332585        -1.881522
