19
Iteration:  1506
 O        -0.550167         0.234266         0.377241
 C        -1.787459         0.817320         0.174796
 C        -3.205975         0.305128        -0.038050
 C        -3.356024         1.833094        -0.028362
 C        -2.476737         1.926932         1.268220
 C        -1.818576         3.295975         1.383247
 C        -0.707904         3.404494         0.314045
 O        -1.344114         3.185617        -0.999212
 C        -2.065027         1.927595        -0.906104
 H        -0.770989        -0.655937         0.548485
 H        -3.454087        -0.148110        -0.970449
 H        -3.687666        -0.095019         0.836078
 H        -4.233822         2.321305        -0.280206
 H        -2.795540         1.481793         2.211626
 H        -2.602214         4.168228         1.207660
 H        -1.390695         3.370322         2.419911
 H        -0.166045         4.395989         0.037678
 H        -0.010311         2.591999         0.574408
 H        -2.158982         1.460092        -1.944332
