19
Iteration:  4451charge 0 multiplicity 1
 O        -0.575976         0.140117         0.249902
 C        -1.757153         0.892214         0.203144
 C        -3.159427         0.251036        -0.126667
 C        -3.381609         1.780762        -0.231192
 C        -2.606992         1.932467         1.129189
 C        -1.813133         3.219924         1.562100
 C        -0.802649         3.466674         0.442256
 O        -1.313474         3.227470        -0.834699
 C        -1.999257         1.941332        -0.864360
 H         0.147213         0.883159         0.355822
 H        -3.162707        -0.316354        -1.048305
 H        -3.581718        -0.368396         0.659615
 H        -4.372250         2.211326        -0.526610
 H        -3.128743         1.454251         1.989196
 H        -2.526955         4.076531         1.638058
 H        -1.403573         3.000605         2.556379
 H        -0.506849         4.537837         0.399064
 H         0.201666         2.933104         0.564460
 H        -1.791507         1.620049        -1.901507
