19
Iteration:  4248
 O        -0.620620         0.135167         0.301343
 C        -1.759956         0.920891         0.177640
 C        -3.170312         0.267273        -0.103891
 C        -3.271066         1.797312        -0.163551
 C        -2.457027         1.960696         1.139919
 C        -1.785168         3.259187         1.519855
 C        -0.799313         3.542693         0.362016
 O        -1.440814         3.171229        -0.806841
 C        -1.987536         1.888527        -0.947420
 H        -0.654979        -0.185653         1.242011
 H        -3.193675        -0.355507        -1.017221
 H        -3.612170        -0.275783         0.737324
 H        -4.193425         2.278361        -0.503787
 H        -3.111733         1.423354         1.903847
 H        -2.526348         4.062385         1.469376
 H        -1.292592         3.142887         2.504201
 H        -0.451645         4.592366         0.328326
 H         0.137058         2.990847         0.275804
 H        -1.949733         1.516889        -1.964514
