19
Iteration:  1832charge 0 multiplicity 1
 O        -0.706167        -0.102010         0.244336
 C        -1.689792         0.813263         0.266760
 C        -3.170640         0.394853         0.007116
 C        -3.326663         1.883374        -0.049109
 C        -2.389290         1.953465         1.227363
 C        -1.796087         3.385769         1.417219
 C        -0.890800         3.688914         0.237976
 O        -1.380544         3.119400        -0.952534
 C        -1.958306         1.814354        -0.898676
 H        -0.142465        -0.004185         0.982341
 H        -3.282971        -0.051717        -1.025110
 H        -3.623002        -0.191691         0.893627
 H        -4.288397         2.140441        -0.324794
 H        -2.633990         1.459913         2.225736
 H        -2.764137         3.974143         1.601870
 H        -1.214660         3.499309         2.387445
 H        -0.569444         4.742548        -0.023551
 H         0.026291         3.251414         0.666079
 H        -2.060087         1.413463        -1.860942
