19
Iteration:  1917charge 0 multiplicity 1
 O        -0.480235         0.372566         0.420696
 C        -1.787885         1.005653         0.303306
 C        -3.190376         0.235517        -0.042441
 C        -3.458913         1.860480        -0.150486
 C        -2.588733         1.951082         1.149995
 C        -1.640091         3.110774         1.438560
 C        -0.681196         3.328067         0.234753
 O        -1.466056         3.151562        -0.977713
 C        -2.104185         1.948260        -0.896636
 H        -0.373870        -0.458862         1.040622
 H        -3.169691        -0.405479        -0.870583
 H        -3.556235        -0.179503         0.887609
 H        -4.410271         2.363550        -0.145531
 H        -3.071566         1.705806         2.090833
 H        -2.160431         4.091521         1.668402
 H        -1.077727         2.813686         2.241068
 H        -0.337788         4.272527        -0.002463
 H         0.135598         2.529648         0.196265
 H        -2.021490         1.345563        -1.938482
