19
Iteration:  4293
 O        -0.641425         0.196718         0.380252
 C        -1.715962         0.928129         0.193237
 C        -3.062516         0.344186        -0.193047
 C        -3.395994         1.835864        -0.024057
 C        -2.521896         1.811522         1.224593
 C        -1.856102         3.143003         1.454494
 C        -0.808776         3.454208         0.348447
 O        -1.268456         3.117379        -1.015917
 C        -2.063340         2.050549        -0.893170
 H        -0.154385         0.407662         1.170419
 H        -3.300178        -0.138208        -1.165593
 H        -3.583096        -0.231036         0.566412
 H        -4.322005         2.420729         0.035670
 H        -2.885783         1.189026         2.134921
 H        -2.708256         3.821389         1.432069
 H        -1.287364         3.030894         2.416724
 H        -0.712954         4.554665         0.286194
 H         0.245047         3.160341         0.595321
 H        -2.231730         1.676055        -1.931177
