19
Iteration:  3640charge 0 multiplicity 1
 O        -0.552714         0.176159         0.422808
 C        -1.740675         0.828277         0.254163
 C        -3.228748         0.285180        -0.117721
 C        -3.319476         1.875553        -0.193423
 C        -2.464804         1.904159         1.123512
 C        -1.746677         3.158049         1.560552
 C        -0.762579         3.651378         0.357283
 O        -1.436366         3.190533        -0.951531
 C        -2.067642         1.877377        -0.962080
 H        -0.756776        -0.704620         0.652444
 H        -3.257795        -0.230086        -1.059692
 H        -3.774400        -0.075696         0.726831
 H        -4.224439         2.353229        -0.481524
 H        -3.083741         1.452108         1.933283
 H        -2.474727         3.900284         1.920219
 H        -1.008326         2.997091         2.331864
 H        -0.643367         4.714800         0.329657
 H         0.227222         3.105170         0.395003
 H        -1.807129         1.395293        -1.853523
