19
Iteration:  1652charge 0 multiplicity 1
 O        -0.619568         0.013287         0.366537
 C        -1.778156         0.786692         0.173326
 C        -3.155191         0.331656         0.025416
 C        -3.393313         1.790381        -0.080473
 C        -2.308797         1.939992         1.150784
 C        -1.786124         3.353447         1.523766
 C        -0.883187         3.716967         0.319139
 O        -1.235664         3.103891        -1.021513
 C        -2.104452         1.918938        -0.946265
 H        -1.029855        -0.885446         0.652378
 H        -3.465131        -0.174848        -0.884782
 H        -3.543709        -0.173505         0.907959
 H        -4.407489         2.346795        -0.186801
 H        -2.821767         1.498984         2.021668
 H        -2.764879         4.068760         1.613126
 H        -1.264729         3.390198         2.441263
 H        -0.722882         4.757863         0.224450
 H         0.139752         3.314011         0.500033
 H        -2.110575         1.649835        -2.099516
