19
Iteration:  2684
 O        -0.509538         0.223396         0.298640
 C        -1.733841         0.890942         0.145929
 C        -3.129142         0.215761        -0.051705
 C        -3.428974         1.839938        -0.082368
 C        -2.533917         2.041895         1.205341
 C        -1.766055         3.306183         1.445584
 C        -0.775707         3.442791         0.366098
 O        -1.333034         3.046532        -0.900801
 C        -2.110190         1.972735        -0.889052
 H        -0.599520        -0.688081         0.298979
 H        -3.177189        -0.366609        -1.018251
 H        -3.715352        -0.377208         0.622601
 H        -4.357994         2.293646        -0.321843
 H        -3.017009         1.535485         2.007667
 H        -2.332162         4.207511         1.525195
 H        -1.346760         3.265845         2.497979
 H        -0.552216         4.561761         0.354312
 H        -0.011525         2.706793         0.610309
 H        -2.264958         1.752068        -1.917327
