19
Iteration:   977
 O        -0.693195        -0.085522         0.358143
 C        -1.801288         0.824982         0.205244
 C        -3.244488         0.329972         0.015626
 C        -3.357580         1.882454         0.017327
 C        -2.392196         1.900011         1.260159
 C        -1.765165         3.292179         1.477844
 C        -0.905262         3.744000         0.219016
 O        -1.226182         3.084468        -1.066665
 C        -1.963182         1.912655        -0.918261
 H         0.022465         0.607686         0.462007
 H        -3.480886        -0.148263        -0.928204
 H        -3.657900        -0.259640         0.838259
 H        -4.265808         2.495429        -0.297533
 H        -3.015737         1.564292         2.117870
 H        -2.550094         4.011260         1.695617
 H        -1.004777         3.288322         2.315973
 H        -0.882749         4.799053         0.020292
 H         0.097271         3.401697         0.428088
 H        -1.997213         1.335428        -1.938459
