19
Iteration:    89charge 0 multiplicity 1
 O        -0.716206        -0.067621         0.624310
 C        -1.834104         0.784812         0.247247
 C        -3.303109         0.341433        -0.002387
 C        -3.349601         1.890931        -0.113740
 C        -2.308061         1.992320         1.195124
 C        -1.498702         3.227074         1.333119
 C        -1.065305         3.933785         0.078964
 O        -1.217216         3.037225        -1.023406
 C        -2.025884         1.798646        -0.809854
 H        -0.505156        -0.748373         0.013704
 H        -3.422320        -0.368129        -0.880561
 H        -3.696216        -0.080737         0.890352
 H        -4.241849         2.499576        -0.364076
 H        -2.735123         1.727965         2.192290
 H        -2.159630         3.893753         1.901827
 H        -0.628432         3.061201         1.978875
 H        -1.607848         4.902999        -0.196729
 H        -0.000357         4.328440         0.188511
 H        -2.044589         1.358290        -1.769365
