19
Iteration:  1817charge 0 multiplicity 1
 O        -0.663986        -0.154181         0.279572
 C        -1.753187         0.883117         0.218495
 C        -3.190069         0.284385         0.025179
 C        -3.289504         1.822025        -0.069807
 C        -2.372366         1.975263         1.218983
 C        -1.810849         3.360573         1.443296
 C        -0.861554         3.670814         0.270919
 O        -1.351499         3.124731        -0.975303
 C        -2.039176         1.918110        -0.872530
 H         0.078042         0.115109         0.821739
 H        -3.389226        -0.323009        -0.818961
 H        -3.666537        -0.128991         0.856927
 H        -4.004409         2.691414        -0.194735
 H        -2.950906         1.704206         2.087872
 H        -2.549994         4.217995         1.324111
 H        -1.339173         3.459082         2.367005
 H        -0.871323         4.720844         0.208233
 H         0.200240         3.325649         0.321930
 H        -2.056620         1.429657        -1.957768
