19
Iteration:   907charge 0 multiplicity 1
 O        -0.558967         0.282793         0.480455
 C        -1.789730         0.907751         0.265800
 C        -3.145115         0.332301        -0.054225
 C        -3.421004         1.861891        -0.078337
 C        -2.553857         1.937490         1.238751
 C        -1.693196         3.186265         1.423805
 C        -0.688249         3.374930         0.218431
 O        -1.369244         3.116917        -1.022432
 C        -2.121839         1.940366        -0.881097
 H        -0.376500        -0.396918        -0.256781
 H        -3.372945        -0.277593        -0.950453
 H        -3.519724        -0.277497         0.800480
 H        -4.306390         2.438515        -0.402053
 H        -2.988640         1.589967         2.230714
 H        -2.469518         3.982608         1.412558
 H        -1.226506         3.262506         2.339050
 H        -0.307090         4.401624         0.114694
 H        -0.019264         2.580061         0.388403
 H        -2.201338         1.544663        -1.892486
