19
Iteration:  3866
 O        -0.646866        -0.048536         0.398874
 C        -1.817825         0.803013         0.215920
 C        -3.155011         0.310677        -0.046434
 C        -3.336589         1.959115        -0.096925
 C        -2.484537         1.869620         1.231587
 C        -1.745343         3.171108         1.528403
 C        -0.931712         3.801657         0.299266
 O        -1.305442         3.128452        -1.062863
 C        -1.932867         1.897593        -0.928643
 H         0.036185         0.427416         0.969249
 H        -3.331125        -0.115148        -1.034227
 H        -3.708322        -0.291706         0.750776
 H        -4.232880         2.417440        -0.517813
 H        -3.033739         1.357240         2.020390
 H        -2.402631         3.911180         1.902761
 H        -0.900406         3.093988         2.200827
 H        -1.058794         4.874636         0.201016
 H         0.220214         3.466442         0.386746
 H        -2.102388         1.543988        -1.993524
