19
Iteration:  4920
 O        -0.518898         0.308337         0.400657
 C        -1.744291         0.886005         0.109575
 C        -3.063382         0.325067        -0.324586
 C        -3.286633         1.834849        -0.289500
 C        -2.604778         1.762804         1.107306
 C        -1.926021         3.050468         1.698706
 C        -0.905209         3.446280         0.584758
 O        -1.298372         3.288750        -0.816530
 C        -1.946629         2.016153        -0.971905
 H        -0.555444        -0.600148        -0.001371
 H        -3.191964        -0.094705        -1.380875
 H        -3.733815        -0.131476         0.471556
 H        -4.279799         2.313327        -0.441626
 H        -3.064800         1.169346         1.921585
 H        -2.678255         3.840965         1.879620
 H        -1.457162         2.702859         2.679381
 H        -0.679330         4.579296         0.636391
 H        -0.002910         2.895692         0.688544
 H        -2.143364         1.653729        -2.063834
