19
Iteration:  4935charge 0 multiplicity 1
 O        -0.527506         0.297554         0.323072
 C        -1.690757         1.023884         0.110662
 C        -3.070622         0.312244        -0.259303
 C        -3.413693         1.834380        -0.276881
 C        -2.582917         1.852380         1.089009
 C        -1.943448         2.983853         1.593184
 C        -0.875029         3.461102         0.623630
 O        -1.330482         3.211386        -0.742206
 C        -1.931382         2.022085        -1.000656
 H        -0.810505        -0.679698         0.205037
 H        -3.098676        -0.319737        -1.117403
 H        -3.328553        -0.371278         0.514321
 H        -4.287787         2.333653        -0.635800
 H        -3.193846         1.206467         1.721845
 H        -2.659135         3.751612         1.921898
 H        -1.347078         2.815323         2.462164
 H        -0.597201         4.467618         0.804475
 H         0.008417         2.830550         0.902286
 H        -1.457878         1.688085        -1.924093
