19
Iteration:  2560charge 0 multiplicity 1
 O        -0.594251         0.142848         0.334253
 C        -1.751912         0.824270         0.124726
 C        -3.263803         0.283711        -0.072434
 C        -3.269014         1.890759        -0.123928
 C        -2.429086         1.878534         1.179320
 C        -1.704356         3.258832         1.547919
 C        -0.879779         3.684846         0.324700
 O        -1.353430         3.066763        -0.947179
 C        -2.035235         1.890163        -0.951993
 H        -0.643712         0.041109         1.253975
 H        -3.491515        -0.289324        -0.928081
 H        -3.689620        -0.155005         0.839437
 H        -4.269399         2.470473        -0.099184
 H        -2.920551         1.337128         1.997962
 H        -2.573866         3.810684         1.933890
 H        -0.996888         3.120410         2.365291
 H        -0.769743         4.741938         0.037619
 H         0.106661         3.309415         0.680008
 H        -2.181186         1.451445        -1.921552
