19
Iteration:   666charge 0 multiplicity 1
 O        -0.735885        -0.070366         0.591281
 C        -1.779552         0.845348         0.282236
 C        -3.176843         0.291216        -0.042933
 C        -3.255341         1.806739        -0.130391
 C        -2.410067         2.002360         1.206903
 C        -1.620778         3.260051         1.347131
 C        -0.755567         3.557738         0.116619
 O        -1.531617         3.250746        -1.011661
 C        -2.022803         1.901292        -0.875311
 H        -0.124632         0.367039         1.202818
 H        -3.417630        -0.074141        -1.068443
 H        -3.656225        -0.203156         0.805220
 H        -4.167707         2.325086        -0.313200
 H        -2.919885         1.644292         2.153853
 H        -2.343045         4.207884         1.456882
 H        -0.961551         3.291019         2.250352
 H        -0.544689         4.718792         0.023173
 H         0.210976         3.137523         0.043183
 H        -2.149401         1.440469        -1.972569
