19
Iteration:  1860charge 0 multiplicity 1
 O        -0.608867         0.058773         0.369304
 C        -1.719653         0.874535         0.238356
 C        -3.237428         0.308369        -0.021587
 C        -3.329651         1.850141        -0.021982
 C        -2.428023         1.898856         1.244339
 C        -1.742299         3.219013         1.397004
 C        -0.811834         3.599399         0.259013
 O        -1.307144         3.126078        -1.044640
 C        -2.109306         1.971058        -0.928755
 H        -0.323242        -0.092530         1.230499
 H        -3.537329        -0.153171        -0.953810
 H        -3.565834        -0.254192         0.815492
 H        -4.366373         2.245914        -0.406156
 H        -2.709823         1.600299         2.237509
 H        -2.610416         3.890152         1.428148
 H        -1.264457         3.352155         2.350559
 H        -0.736312         4.667405         0.152461
 H         0.193832         3.306984         0.619924
 H        -2.476247         1.546072        -1.969965
