19
Iteration:  4598
 O        -0.504964         0.212232         0.396310
 C        -1.753235         0.918897         0.105332
 C        -3.161885         0.329884        -0.379667
 C        -3.425254         1.785250        -0.075372
 C        -2.488247         1.777021         1.217966
 C        -1.890949         3.151519         1.454798
 C        -0.788584         3.475859         0.523362
 O        -1.300999         3.224847        -0.876121
 C        -2.066193         2.059063        -0.889807
 H        -0.639050        -0.302543         1.256018
 H        -3.068971        -0.073852        -1.428175
 H        -3.379305        -0.467940         0.360369
 H        -4.455345         2.156955        -0.111545
 H        -2.859476         1.143133         1.997714
 H        -2.628725         3.963237         1.309180
 H        -1.472319         3.213855         2.471440
 H        -0.483560         4.533482         0.438457
 H         0.181973         2.871565         0.575675
 H        -2.000876         1.735213        -1.968380
