19
Iteration:  4498
 O        -0.497710         0.187505         0.459513
 C        -1.718392         0.906099         0.112741
 C        -3.098576         0.334355        -0.329470
 C        -3.376923         1.855532        -0.046837
 C        -2.470670         1.771949         1.244167
 C        -1.874169         3.154794         1.475988
 C        -0.882512         3.498873         0.477991
 O        -1.312997         3.199946        -0.941995
 C        -2.075568         2.028049        -0.964210
 H        -0.962818        -0.688988         0.736308
 H        -3.260353        -0.146550        -1.308174
 H        -3.690894        -0.292379         0.354624
 H        -4.239632         2.503260        -0.091896
 H        -2.865336         1.255999         2.083460
 H        -2.708072         3.875027         1.570337
 H        -1.303417         3.145329         2.408912
 H        -0.574674         4.558417         0.448123
 H         0.082834         2.922252         0.599972
 H        -2.131923         1.807006        -2.022479
