19
Iteration:  2087
 O        -0.597771         0.258952         0.471214
 C        -1.805625         0.856969         0.250848
 C        -3.184418         0.267763        -0.055265
 C        -3.395446         1.795606        -0.061426
 C        -2.429076         1.927206         1.123420
 C        -1.628010         3.152301         1.450486
 C        -0.796351         3.563382         0.259845
 O        -1.397478         3.185926        -1.023081
 C        -2.099602         1.889761        -0.979637
 H        -0.604011        -0.370350         1.277047
 H        -3.377678        -0.176491        -1.076020
 H        -3.763639        -0.187748         0.792302
 H        -4.449111         2.117713        -0.193190
 H        -2.984331         1.659572         2.034029
 H        -2.096015         4.013765         1.858599
 H        -0.961061         2.775541         2.306475
 H        -0.581663         4.661300         0.328229
 H         0.208903         3.099379         0.299221
 H        -2.002502         1.586968        -1.959436
