19
Iteration:  3412
 O        -0.530070         0.231130         0.392193
 C        -1.753399         0.870431         0.208158
 C        -3.176015         0.280339        -0.158229
 C        -3.368736         1.892188        -0.019224
 C        -2.407557         1.833722         1.100603
 C        -1.793970         3.221454         1.429916
 C        -0.786495         3.415119         0.379354
 O        -1.372651         3.188350        -0.934094
 C        -2.122274         1.953385        -0.939571
 H        -0.600591        -0.238860         1.310739
 H        -3.438928        -0.148174        -1.160345
 H        -3.640203        -0.279549         0.651682
 H        -4.206784         2.544734        -0.162686
 H        -2.758969         1.492637         2.068420
 H        -2.584151         3.966760         1.386268
 H        -1.537023         3.278121         2.551041
 H        -0.441234         4.413315         0.192447
 H         0.188282         2.848460         0.526264
 H        -2.227038         1.542702        -2.006527
