19
Iteration:  4896
 O        -0.536671         0.186867         0.542283
 C        -1.732786         0.866302         0.125172
 C        -3.129275         0.269759        -0.524178
 C        -3.391044         1.824485        -0.186842
 C        -2.534844         1.672212         1.131066
 C        -1.855800         3.100902         1.501552
 C        -0.844792         3.571560         0.549934
 O        -1.314952         3.341233        -0.750597
 C        -1.996511         2.029776        -0.885781
 H        -0.199087        -0.194561        -0.240866
 H        -3.264276         0.129375        -1.642321
 H        -3.673195        -0.482296         0.133728
 H        -4.372036         2.364253        -0.190216
 H        -2.948242         1.282777         2.066118
 H        -2.696525         3.798825         1.587107
 H        -1.439811         2.921010         2.530811
 H        -0.600127         4.685299         0.534859
 H         0.105420         3.040095         0.730718
 H        -2.057045         1.719839        -1.991121
