19
Iteration:  3619charge 0 multiplicity 1
 O        -0.561249         0.297349         0.390319
 C        -1.797838         0.861349         0.158904
 C        -3.202813         0.271229        -0.185752
 C        -3.443573         1.767596        -0.079913
 C        -2.583727         1.920937         1.224297
 C        -1.706290         3.137696         1.470181
 C        -0.777946         3.533815         0.320808
 O        -1.314834         3.129077        -0.947763
 C        -1.979423         1.980337        -0.885754
 H        -0.533960        -0.303956         1.195502
 H        -3.171980        -0.027637        -1.262927
 H        -3.652710        -0.274933         0.610249
 H        -4.335778         2.304343        -0.288109
 H        -2.968019         1.494191         2.183921
 H        -2.339827         3.982025         1.607421
 H        -1.089445         2.958399         2.381571
 H        -0.617202         4.587557         0.442533
 H         0.163320         2.933258         0.345162
 H        -2.132908         1.581302        -1.870663
