19
Iteration:  4818charge 0 multiplicity 1
 O        -0.601014         0.230453         0.226419
 C        -1.793462         0.806048         0.147267
 C        -3.111746         0.250364        -0.349723
 C        -3.333262         1.822176        -0.214785
 C        -2.515349         1.751355         1.098856
 C        -1.917324         3.189552         1.571386
 C        -0.832413         3.554057         0.573855
 O        -1.293284         3.229040        -0.724691
 C        -1.940250         2.045148        -0.871394
 H        -0.176872         0.284875         1.100685
 H        -2.950237        -0.313659        -1.303112
 H        -3.768452        -0.337325         0.322377
 H        -4.262939         2.310625        -0.499304
 H        -2.996053         1.376154         1.990201
 H        -2.736916         3.906341         1.645082
 H        -1.615483         2.926895         2.576214
 H        -0.567462         4.588883         0.452632
 H         0.018933         2.957250         0.803752
 H        -1.903533         1.656194        -1.881053
