19
Iteration:  2097charge 0 multiplicity 1
 O        -0.592898         0.262313         0.447226
 C        -1.819395         0.880400         0.229787
 C        -3.167031         0.250137         0.024347
 C        -3.357531         1.826027        -0.141154
 C        -2.528325         1.906522         1.138085
 C        -1.625961         3.127352         1.409737
 C        -0.745676         3.509747         0.228498
 O        -1.440090         3.208319        -0.951353
 C        -2.054250         1.960083        -0.946769
 H        -0.783995        -0.321817         1.212638
 H        -3.238677        -0.372260        -0.919996
 H        -3.543159        -0.368826         0.865402
 H        -4.292643         2.411847        -0.142334
 H        -3.013858         1.509794         2.067956
 H        -2.374594         3.856905         1.708678
 H        -0.900911         3.002750         2.248908
 H        -0.533425         4.625100         0.124298
 H         0.209586         2.908588         0.201054
 H        -2.021287         1.432011        -1.912116
