19
Iteration:  1850charge 0 multiplicity 1
 O        -0.652086        -0.028729         0.295401
 C        -1.750529         0.858626         0.256824
 C        -3.197582         0.251030        -0.031814
 C        -3.308381         1.843742         0.008303
 C        -2.396417         1.942129         1.263791
 C        -1.797036         3.337335         1.434158
 C        -0.853810         3.627562         0.273631
 O        -1.320572         3.120271        -1.064259
 C        -2.036488         1.948839        -0.900621
 H        -0.364503         0.015898         1.178265
 H        -3.344567        -0.253124        -0.953013
 H        -3.600310        -0.193594         0.837598
 H        -4.088039         2.664256        -0.086593
 H        -2.950141         1.475329         2.053940
 H        -2.652098         4.056211         1.542482
 H        -1.241649         3.390934         2.322112
 H        -0.810373         4.659930         0.123261
 H         0.155742         3.178993         0.342452
 H        -2.053282         1.548049        -2.014368
