19
Iteration:   271
 O        -0.616930         0.136915         0.468672
 C        -1.756139         0.897598         0.293063
 C        -3.230166         0.333370         0.065710
 C        -3.363270         1.921576        -0.049576
 C        -2.488114         1.968835         1.215380
 C        -1.708962         3.241871         1.398731
 C        -0.808827         3.518973         0.128578
 O        -1.346385         3.010574        -1.086575
 C        -2.078021         1.847165        -0.925432
 H         0.113749         0.649805         0.913647
 H        -3.365901        -0.098323        -0.895302
 H        -3.741136        -0.178864         0.901469
 H        -4.132888         2.549835        -0.371293
 H        -2.887635         1.534217         2.083441
 H        -2.386865         4.052418         1.701832
 H        -1.033422         3.081965         2.247940
 H        -0.418649         4.569785         0.049153
 H         0.115097         2.943905         0.422556
 H        -2.248655         1.501860        -1.984565
