19
Iteration:   182charge 0 multiplicity 1
 O        -0.678749         0.169445         0.533261
 C        -1.814292         0.911351         0.253071
 C        -3.203656         0.352405         0.061161
 C        -3.421677         1.886145        -0.080415
 C        -2.449820         1.946672         1.218498
 C        -1.655761         3.196887         1.372214
 C        -0.802042         3.613155         0.184459
 O        -1.251373         2.977342        -1.016754
 C        -2.114397         1.821739        -0.997544
 H         0.138145         0.454691         0.010012
 H        -3.347298        -0.318048        -0.725470
 H        -3.680261        -0.008264         1.019658
 H        -4.402045         2.402077        -0.180320
 H        -2.932236         1.684234         2.094597
 H        -2.270392         4.055364         1.709000
 H        -0.951870         2.994913         2.180493
 H        -0.830264         4.642207        -0.022702
 H         0.270196         3.374318         0.268082
 H        -2.171760         1.348596        -2.047550
