19
Iteration:  2568charge 0 multiplicity 1
 O        -0.552289         0.123971         0.339542
 C        -1.842139         0.800895         0.159633
 C        -3.231578         0.306043        -0.038351
 C        -3.333650         1.857811        -0.073523
 C        -2.437774         1.888021         1.173717
 C        -1.718277         3.212564         1.536626
 C        -0.885492         3.669783         0.323237
 O        -1.328352         3.123910        -0.945930
 C        -2.003820         1.857904        -1.001003
 H        -0.448660         0.067555         1.265618
 H        -3.570695        -0.042993        -1.016612
 H        -3.599500        -0.294660         0.800201
 H        -4.220223         2.562979        -0.364960
 H        -3.110912         1.556876         2.047732
 H        -2.309284         4.066807         1.935878
 H        -1.024116         3.096159         2.317349
 H        -0.975664         4.729251         0.278755
 H         0.159185         3.299482         0.302870
 H        -1.969592         1.596562        -2.131196
