19
Iteration:  4954charge 0 multiplicity 1
 O        -0.533586         0.274456         0.285495
 C        -1.748548         0.866120         0.126102
 C        -3.066111         0.199077        -0.357625
 C        -3.344276         1.768449        -0.290316
 C        -2.642035         1.831263         1.102748
 C        -1.917245         3.131175         1.616000
 C        -0.794741         3.486432         0.643087
 O        -1.298921         3.337613        -0.739477
 C        -1.979581         2.011690        -0.908581
 H        -0.516744        -0.674446         0.657175
 H        -3.202473        -0.339803        -1.361057
 H        -3.729634        -0.340627         0.396427
 H        -4.336711         2.139455        -0.512315
 H        -3.166765         1.246936         1.911824
 H        -2.559054         4.037218         1.721094
 H        -1.539347         2.913542         2.682592
 H        -0.429931         4.540131         0.543025
 H         0.075700         2.888379         0.831409
 H        -1.954177         2.007026        -2.079195
