19
Iteration:  3241charge 0 multiplicity 1
 O        -0.631875         0.084277         0.339301
 C        -1.747389         0.840282         0.198991
 C        -3.166497         0.297691        -0.100716
 C        -3.363148         1.851194        -0.005306
 C        -2.345856         1.870295         1.212457
 C        -1.757863         3.302447         1.485986
 C        -0.854365         3.525906         0.284338
 O        -1.390540         3.146401        -0.961811
 C        -2.043205         1.963210        -0.932934
 H        -0.033036         0.436769         0.958431
 H        -3.539853        -0.183403        -1.093975
 H        -3.752814        -0.187099         0.753713
 H        -4.285500         2.277263        -0.250997
 H        -2.950035         1.480319         2.066596
 H        -2.582141         4.027164         1.606391
 H        -1.140606         3.381808         2.372106
 H        -0.464858         4.568012         0.093594
 H        -0.052181         2.830779         0.418215
 H        -2.096238         1.588294        -1.977051
