19
Iteration:  1139charge 0 multiplicity 1
 O        -0.644303         0.095514         0.281358
 C        -1.789510         0.912516         0.231331
 C        -3.198821         0.310357         0.009690
 C        -3.372542         1.791212        -0.043941
 C        -2.483167         1.946786         1.244000
 C        -1.837613         3.367657         1.407400
 C        -0.722647         3.527561         0.301493
 O        -1.234125         3.036099        -0.987218
 C        -2.095429         1.917101        -0.863989
 H         0.200158         0.381132        -0.169049
 H        -3.429028        -0.182805        -0.927549
 H        -3.492064        -0.246925         0.906791
 H        -4.264703         2.457724        -0.070177
 H        -2.876961         1.374625         2.089084
 H        -2.598953         4.166878         1.321236
 H        -1.547990         3.441719         2.545655
 H        -0.438267         4.538275         0.127307
 H         0.212661         2.842822         0.573994
 H        -2.309400         1.563225        -1.833210
