19
Iteration:  2908charge 0 multiplicity 1
 O        -0.672908         0.015041         0.355845
 C        -1.757067         0.906456         0.211840
 C        -3.140003         0.281240        -0.091397
 C        -3.471335         1.733353        -0.028965
 C        -2.418008         1.887888         1.219162
 C        -1.750401         3.268825         1.470174
 C        -0.802140         3.617171         0.244604
 O        -1.309897         3.176930        -0.967168
 C        -2.093889         2.008806        -0.917612
 H        -0.013038         0.485684         0.983718
 H        -3.128348        -0.278858        -1.051494
 H        -3.516886        -0.477084         0.682078
 H        -4.258229         2.413995        -0.135551
 H        -2.654439         1.501696         2.141343
 H        -2.557892         3.991568         1.501508
 H        -1.191790         3.264309         2.403259
 H        -0.473217         4.631474         0.289057
 H         0.189589         2.997971         0.357050
 H        -2.080476         1.675399        -1.984333
