19
Iteration:  2706charge 0 multiplicity 1
 O        -0.540340         0.286158         0.325527
 C        -1.818366         0.878714         0.213406
 C        -3.242799         0.320758        -0.041362
 C        -3.398410         1.832465        -0.038986
 C        -2.436475         1.825826         1.230313
 C        -1.866949         3.233863         1.458904
 C        -0.722473         3.514369         0.292340
 O        -1.268691         3.185924        -0.971893
 C        -1.998570         1.870604        -0.931279
 H        -0.565294        -0.736989         0.263475
 H        -3.625562        -0.211041        -0.943919
 H        -3.651027        -0.210497         0.806046
 H        -4.378072         2.245317        -0.184076
 H        -2.897348         1.216802         1.987729
 H        -2.699983         3.900113         1.447780
 H        -1.508399         3.371548         2.526853
 H        -0.432077         4.617121         0.305327
 H         0.048338         2.772943         0.551722
 H        -2.123621         1.501164        -1.918073
