19
Iteration:   365
 O        -0.566352         0.029048         0.417072
 C        -1.775219         0.805316         0.273525
 C        -3.224658         0.332639        -0.032414
 C        -3.313015         1.873522         0.023434
 C        -2.463363         1.985827         1.212919
 C        -1.726303         3.370117         1.372446
 C        -0.800812         3.515690         0.152154
 O        -1.436101         3.139104        -1.016206
 C        -1.966239         1.856243        -0.902255
 H        -0.710429        -0.391541         1.293217
 H        -3.422466        -0.012512        -1.071998
 H        -3.784110        -0.225620         0.789764
 H        -4.282799         2.526979        -0.209308
 H        -2.989484         1.745822         2.225784
 H        -2.507718         4.160895         1.229658
 H        -1.191252         3.636038         2.349010
 H        -0.378991         4.456876        -0.002311
 H         0.006698         2.849715         0.379834
 H        -2.057423         1.413219        -1.895207
