19
Iteration:  1745
 O        -0.511472         0.408138         0.506204
 C        -1.777243         0.961891         0.275461
 C        -3.325409         0.269747        -0.084241
 C        -3.455271         1.797060        -0.094905
 C        -2.537989         1.906117         1.177921
 C        -1.655972         3.137126         1.430353
 C        -0.715373         3.349913         0.247111
 O        -1.394873         3.182739        -1.004302
 C        -2.048321         1.902323        -0.920468
 H        -0.211957        -0.306669         0.000550
 H        -3.390004        -0.444292        -0.974272
 H        -3.864504        -0.255596         0.809324
 H        -4.334563         2.349275        -0.221245
 H        -2.955345         1.406113         2.085718
 H        -2.187543         4.025448         1.700609
 H        -0.854074         2.922322         2.257901
 H        -0.273956         4.437558         0.300344
 H         0.170601         2.690407         0.230500
 H        -2.011214         1.572507        -1.887594
