19
Iteration:  3251charge 0 multiplicity 1
 O        -0.604122         0.055164         0.340098
 C        -1.780440         0.835915         0.204232
 C        -3.261392         0.323929        -0.004243
 C        -3.279516         1.866438        -0.162405
 C        -2.375081         1.894418         1.241147
 C        -1.745403         3.249939         1.512023
 C        -0.822479         3.531925         0.296283
 O        -1.431789         3.220982        -0.977976
 C        -2.048984         1.895513        -0.970281
 H         0.036614         0.538372         0.900209
 H        -3.257995        -0.271561        -0.967155
 H        -3.748146        -0.194574         0.833082
 H        -4.206822         2.348410        -0.229727
 H        -2.638266         1.333546         2.185205
 H        -2.533274         4.014863         1.602225
 H        -1.285266         3.152560         2.490734
 H        -0.661777         4.623429         0.193979
 H         0.121784         3.119428         0.506581
 H        -2.093164         1.464634        -2.013616
