19
Iteration:    73
 O        -0.752167        -0.181986         0.537025
 C        -1.772097         0.797268         0.352834
 C        -3.253082         0.399157         0.083071
 C        -3.251363         1.922956        -0.058991
 C        -2.414103         2.000725         1.221728
 C        -1.537123         3.320929         1.430934
 C        -1.200038         3.904180         0.030768
 O        -1.159888         2.948501        -1.038647
 C        -1.920831         1.831698        -0.947688
 H        -0.506314        -0.303670        -0.390790
 H        -3.517630        -0.087935        -0.842355
 H        -3.871946        -0.059311         0.932886
 H        -4.079679         2.585949        -0.336092
 H        -2.922490         1.653175         2.155222
 H        -2.093075         4.078146         2.024675
 H        -0.628327         3.023431         2.011943
 H        -1.988925         4.668242        -0.158153
 H        -0.226976         4.355574        -0.007399
 H        -1.975835         1.407615        -2.002428
