19
Iteration:  4270charge 0 multiplicity 1
 O        -0.466312         0.110247         0.389547
 C        -1.774577         0.790582         0.169977
 C        -3.269833         0.300237        -0.178163
 C        -3.389965         1.844356        -0.071109
 C        -2.448830         1.849131         1.201716
 C        -1.821024         3.272938         1.452434
 C        -0.802640         3.540212         0.406492
 O        -1.348197         3.224673        -0.945103
 C        -2.043559         1.949556        -0.955671
 H        -0.314262         0.309101         1.327356
 H        -3.495274        -0.172970        -1.173781
 H        -3.744475        -0.335453         0.585563
 H        -4.241358         2.505250        -0.320257
 H        -2.879002         1.204671         2.074128
 H        -2.725757         3.869205         1.416783
 H        -1.212861         3.280359         2.379638
 H        -0.398566         4.581398         0.434245
 H         0.128228         2.942922         0.550819
 H        -2.071680         1.620165        -1.994400
