19
Iteration:  2778charge 0 multiplicity 1
 O        -0.606836         0.136833         0.471544
 C        -1.783948         0.846121         0.216918
 C        -3.104753         0.332031        -0.021632
 C        -3.307031         1.854899        -0.157850
 C        -2.502918         1.875012         1.113826
 C        -1.673564         3.100480         1.458971
 C        -0.769114         3.575029         0.255776
 O        -1.508665         3.261994        -0.909544
 C        -1.994783         1.970349        -0.929726
 H        -0.779084        -0.838177         0.453125
 H        -3.154834        -0.236995        -0.938317
 H        -3.708479        -0.186909         0.751197
 H        -4.203403         2.366367        -0.311135
 H        -3.011756         1.537070         2.032995
 H        -2.507754         3.883076         1.585500
 H        -1.247345         3.038424         2.424840
 H        -0.657935         4.609957         0.188477
 H         0.183033         3.095342         0.194852
 H        -2.026756         1.439762        -1.902239
