19
Iteration:   605charge 0 multiplicity 1
 O        -0.601782         0.094995         0.353430
 C        -1.829313         0.851259         0.335818
 C        -3.328107         0.323196        -0.050905
 C        -3.422601         1.873687         0.031102
 C        -2.478115         1.997658         1.277794
 C        -1.747696         3.354150         1.417435
 C        -0.846235         3.689611         0.077834
 O        -1.114019         2.859386        -1.013311
 C        -2.040456         1.838184        -0.824162
 H        -0.029419         0.611416        -0.293374
 H        -3.409368         0.041313        -1.101679
 H        -3.733254        -0.515774         0.584164
 H        -4.390217         2.546985         0.002284
 H        -2.904102         1.574851         2.164100
 H        -2.524681         3.984890         1.729198
 H        -1.082185         3.318853         2.288904
 H        -0.949457         4.743559        -0.085638
 H         0.241875         3.673770         0.512128
 H        -2.047823         1.328395        -1.714831
