19
Iteration:  4555charge 0 multiplicity 1
 O        -0.584085         0.142992         0.473020
 C        -1.714690         0.888801         0.152721
 C        -3.149397         0.290425        -0.251294
 C        -3.398486         1.763626        -0.236839
 C        -2.534758         1.860680         1.109405
 C        -1.769409         3.125533         1.635657
 C        -0.848718         3.569131         0.484867
 O        -1.397984         3.258718        -0.889475
 C        -1.953453         1.942589        -0.966287
 H        -0.088915         0.436217        -0.260791
 H        -3.395804        -0.191061        -1.224341
 H        -3.744630        -0.048414         0.614019
 H        -4.279962         2.376122        -0.431362
 H        -2.960986         1.377925         1.990247
 H        -2.501429         3.850379         1.981823
 H        -1.166672         2.806468         2.495356
 H        -0.657222         4.650863         0.547329
 H         0.129677         2.996162         0.555450
 H        -1.792313         1.755618        -2.034480
