19
Iteration:  3709
 O        -0.586472         0.085369         0.503224
 C        -1.759939         0.893728         0.178769
 C        -3.217079         0.298703        -0.213403
 C        -3.357368         1.821265        -0.043655
 C        -2.417716         1.844068         1.235114
 C        -1.817269         3.240838         1.400562
 C        -0.793401         3.639572         0.350063
 O        -1.341089         3.123364        -0.958337
 C        -2.079069         1.941906        -0.865548
 H         0.032760         0.061572        -0.216103
 H        -3.289750         0.094709        -1.337334
 H        -3.741154        -0.298454         0.525625
 H        -4.195654         2.517490         0.005017
 H        -2.894047         1.430463         2.147274
 H        -2.610706         3.958005         1.441129
 H        -1.266609         3.185810         2.370769
 H        -0.574554         4.667233        -0.027703
 H         0.092781         3.016347         0.497412
 H        -2.007498         1.588843        -1.913717
