19
Iteration:  2474charge 0 multiplicity 1
 O        -0.518538         0.290158         0.382339
 C        -1.786128         0.883206         0.143750
 C        -3.202687         0.237081         0.062285
 C        -3.372138         1.828429        -0.131186
 C        -2.523869         1.916898         1.170168
 C        -1.790326         3.207183         1.434907
 C        -0.712936         3.378942         0.335544
 O        -1.374717         3.234977        -0.952071
 C        -2.099028         1.959388        -0.932678
 H        -0.473784        -0.697271         0.532197
 H        -3.460750        -0.293968        -0.922941
 H        -3.466272        -0.322109         1.040359
 H        -4.298786         2.337058        -0.587891
 H        -2.767908         1.395934         2.078809
 H        -2.403364         4.119059         1.636867
 H        -1.115021         3.081838         2.418086
 H        -0.330783         4.436630         0.172870
 H         0.103642         2.623599         0.430236
 H        -2.246512         1.723768        -1.974047
