19
Iteration:  1907
 O        -0.481494         0.413886         0.417787
 C        -1.818896         0.884925         0.282051
 C        -3.169613         0.339270        -0.039297
 C        -3.470849         1.810375        -0.143273
 C        -2.555019         1.936327         1.199936
 C        -1.590844         3.160148         1.478174
 C        -0.702268         3.328219         0.208236
 O        -1.456176         3.129059        -1.004926
 C        -2.121126         1.922654        -0.923809
 H        -0.546978        -0.294054         1.149718
 H        -3.181522        -0.283902        -0.902873
 H        -3.873578        -0.114419         0.651869
 H        -4.407739         2.212149        -0.386763
 H        -3.071311         1.486850         2.089229
 H        -2.231007         4.051021         1.784998
 H        -0.949182         2.973206         2.280349
 H        -0.355741         4.321045         0.261752
 H         0.209107         2.720062         0.374516
 H        -2.043627         1.397916        -1.954428
