19
Iteration:  3479charge 0 multiplicity 1
 O        -0.657773         0.081655         0.513148
 C        -1.781592         0.797078         0.172100
 C        -3.203958         0.282226        -0.183746
 C        -3.380788         1.842342        -0.180795
 C        -2.425515         1.940180         1.219355
 C        -1.651103         3.135942         1.562167
 C        -0.943601         3.691275         0.344485
 O        -1.306676         3.171989        -1.002217
 C        -2.035686         1.924401        -0.896930
 H         0.001976        -0.056611        -0.146693
 H        -3.320672        -0.174525        -1.178116
 H        -3.638405        -0.273166         0.603052
 H        -4.256166         2.326423        -0.375293
 H        -2.867981         1.449507         2.062243
 H        -2.322792         3.907004         1.945863
 H        -0.838435         3.096029         2.371975
 H        -1.082348         4.775552         0.379422
 H         0.133655         3.504289         0.415691
 H        -1.911263         1.748674        -1.984016
