19
Iteration:  4594charge 0 multiplicity 1
 O        -0.508069         0.222524         0.421007
 C        -1.735547         0.939662         0.125742
 C        -3.115972         0.351070        -0.400120
 C        -3.422528         1.779587        -0.046580
 C        -2.510353         1.754297         1.184877
 C        -1.874989         3.122591         1.462075
 C        -0.786061         3.484243         0.504412
 O        -1.299723         3.218782        -0.881628
 C        -2.075277         2.067839        -0.902869
 H        -0.708006        -0.437893         1.127825
 H        -3.192323        -0.093357        -1.396563
 H        -3.517719        -0.344355         0.358715
 H        -4.408347         2.223568        -0.118052
 H        -2.828349         1.148534         2.087116
 H        -2.606974         3.943438         1.284268
 H        -1.575189         3.141487         2.525006
 H        -0.512297         4.536431         0.395556
 H         0.142051         2.946585         0.599419
 H        -2.208402         1.620190        -1.920694
