19
Iteration:  2890charge 0 multiplicity 1
 O        -0.600518         0.092958         0.305782
 C        -1.758645         0.881919         0.248743
 C        -3.152890         0.276432        -0.039550
 C        -3.337994         1.890026        -0.049922
 C        -2.523298         1.879176         1.258422
 C        -1.793755         3.250136         1.390494
 C        -0.763287         3.466530         0.332516
 O        -1.341187         3.210414        -1.020464
 C        -2.053572         1.913072        -0.868024
 H         0.187427         0.725086         0.289119
 H        -3.368672        -0.267964        -0.985790
 H        -3.678920        -0.180871         0.758421
 H        -4.400898         2.181830        -0.174245
 H        -3.051793         1.502140         2.215410
 H        -2.598182         4.086885         1.438159
 H        -1.336567         3.181934         2.395598
 H        -0.625245         4.558976         0.265143
 H         0.103339         2.877212         0.555495
 H        -2.156307         1.517699        -1.894656
