19
Iteration:  1501
 O        -0.575844         0.239860         0.378737
 C        -1.747199         0.851899         0.182656
 C        -3.200654         0.311152        -0.009853
 C        -3.373817         1.800821         0.002307
 C        -2.464389         1.931430         1.219343
 C        -1.881199         3.284057         1.362563
 C        -0.678156         3.428532         0.299773
 O        -1.286188         3.170822        -0.992738
 C        -2.107555         1.934573        -0.909808
 H        -0.797477        -0.749644         0.497205
 H        -3.501023        -0.160446        -0.999298
 H        -3.712419        -0.192585         0.859067
 H        -4.375416         2.315171        -0.257721
 H        -2.777233         1.483619         2.184361
 H        -2.592299         4.039614         1.397209
 H        -1.273087         3.260071         2.315140
 H        -0.236885         4.355852         0.074206
 H         0.047751         2.658513         0.628379
 H        -2.143919         1.646094        -1.936208
