19
Iteration:  1465
 O        -0.642637         0.254553         0.363560
 C        -1.810057         0.885961         0.186066
 C        -3.234546         0.294996        -0.038463
 C        -3.350924         1.844198        -0.028859
 C        -2.469287         1.907427         1.238630
 C        -1.762281         3.275993         1.508169
 C        -0.769701         3.630336         0.236071
 O        -1.200291         2.987852        -0.990096
 C        -2.074431         1.863905        -0.902472
 H        -0.482147        -0.671855        -0.018316
 H        -3.475322        -0.114715        -1.036090
 H        -3.709264        -0.233525         0.798287
 H        -4.280820         2.286703        -0.352351
 H        -2.937141         1.371971         2.105298
 H        -2.545018         4.017694         1.811140
 H        -1.202468         3.185659         2.367645
 H        -0.829800         4.701247         0.221261
 H         0.296617         3.407685         0.396216
 H        -2.282324         1.465751        -1.953354
