19
Iteration:  1576
 O        -0.604712         0.257841         0.498528
 C        -1.800481         0.848339         0.181861
 C        -3.238089         0.362134        -0.075208
 C        -3.386672         1.875949        -0.055902
 C        -2.426442         1.851037         1.138611
 C        -1.645386         3.052243         1.424643
 C        -0.822350         3.635051         0.304223
 O        -1.303371         3.056873        -1.046216
 C        -2.102273         1.944800        -0.928632
 H        -0.596391         0.101582         1.417852
 H        -3.406539        -0.233339        -0.995686
 H        -3.723593        -0.006971         0.841218
 H        -4.439401         2.313565        -0.239591
 H        -2.687382         1.259942         2.057793
 H        -2.391836         3.831330         1.810218
 H        -0.938462         2.917148         2.151772
 H        -0.870088         4.688455         0.283581
 H         0.247609         3.297177         0.282828
 H        -2.197618         1.687913        -2.024846
