19
Iteration:  4814
 O        -0.574538         0.225604         0.247210
 C        -1.789030         0.852537         0.125473
 C        -3.120959         0.223080        -0.348854
 C        -3.349643         1.807964        -0.219269
 C        -2.508229         1.767382         1.139236
 C        -1.930133         3.171011         1.573789
 C        -0.813233         3.572076         0.536502
 O        -1.257298         3.233249        -0.735459
 C        -1.972954         2.039931        -0.889572
 H        -0.274376         0.174863         1.171762
 H        -2.983518        -0.128946        -1.386242
 H        -3.824548        -0.363324         0.240267
 H        -4.381642         2.213337        -0.363202
 H        -3.055674         1.297907         2.033899
 H        -2.796131         3.869041         1.607905
 H        -1.569951         2.910131         2.590909
 H        -0.555995         4.676563         0.547490
 H        -0.012651         2.809183         1.019681
 H        -2.014904         1.725554        -1.959403
