19
Iteration:  3201
 O        -0.615804         0.168853         0.312077
 C        -1.805219         0.881500         0.215320
 C        -3.160071         0.269734        -0.064396
 C        -3.402416         1.745032        -0.049852
 C        -2.478465         1.845423         1.228302
 C        -1.714271         3.246417         1.400768
 C        -0.735737         3.486365         0.282380
 O        -1.303248         3.195198        -0.965624
 C        -2.158782         1.989671        -0.894620
 H        -0.005428         0.737628         0.908330
 H        -3.306058        -0.253423        -0.954920
 H        -3.569124        -0.214772         0.823803
 H        -4.335691         2.317307         0.131496
 H        -2.889852         1.436183         2.117279
 H        -2.616145         3.886374         1.251453
 H        -1.311300         3.617530         2.356590
 H        -0.232549         4.441540         0.398623
 H         0.080227         2.736638         0.584177
 H        -2.247257         1.624726        -1.880261
