19
Iteration:  3587
 O        -0.519167         0.329402         0.364971
 C        -1.758168         0.920569         0.112262
 C        -3.230008         0.295361        -0.128792
 C        -3.451962         1.824288        -0.067870
 C        -2.468273         1.879291         1.172057
 C        -1.844664         3.181700         1.455207
 C        -0.792670         3.346255         0.392109
 O        -1.290367         3.087060        -0.900031
 C        -2.074053         2.013937        -0.951346
 H        -0.211067         0.443568         1.236460
 H        -3.228268        -0.353409        -1.090913
 H        -3.661034        -0.308875         0.678426
 H        -4.236800         2.498639        -0.155722
 H        -2.710376         1.318266         2.093569
 H        -2.522170         3.961696         1.454561
 H        -1.221802         3.352432         2.349156
 H        -0.282467         4.295361         0.455623
 H        -0.056222         2.557456         0.460872
 H        -2.077161         1.765327        -2.026197
