19
Iteration:  3144charge 0 multiplicity 1
 O        -0.693263         0.107542         0.461577
 C        -1.808780         0.902781         0.231105
 C        -3.124045         0.233727        -0.084441
 C        -3.391324         1.746774        -0.016074
 C        -2.546843         1.937265         1.192681
 C        -1.628500         3.120331         1.447777
 C        -0.801842         3.634951         0.240213
 O        -1.343090         3.230461        -1.013717
 C        -2.018444         1.951995        -0.873369
 H        -0.097272         0.465716        -0.166162
 H        -3.359489        -0.152262        -1.085838
 H        -3.646980        -0.311505         0.725477
 H        -4.232898         2.332657        -0.196047
 H        -2.815972         1.401228         2.030009
 H        -2.484629         3.811369         1.739729
 H        -0.937478         3.004712         2.273999
 H        -0.713068         4.753377         0.119540
 H         0.175340         3.057155         0.318966
 H        -2.069626         1.621932        -1.870991
