19
Iteration:  4323
 O        -0.566525         0.154884         0.362945
 C        -1.760906         0.852238         0.220295
 C        -3.208745         0.255613        -0.178277
 C        -3.395656         1.717917        -0.192972
 C        -2.491936         1.939321         1.128799
 C        -1.765687         3.261322         1.534477
 C        -0.758646         3.529749         0.417353
 O        -1.369750         3.158155        -0.864991
 C        -2.039776         1.959158        -0.926400
 H         0.164387         0.776151         0.492969
 H        -3.480199        -0.288025        -1.138469
 H        -3.879163        -0.156001         0.636090
 H        -4.274915         2.382271        -0.303903
 H        -2.977925         1.382852         2.024775
 H        -2.549255         4.017697         1.826514
 H        -1.180177         3.053361         2.441607
 H        -0.581175         4.616478         0.243793
 H         0.247082         3.085197         0.427928
 H        -2.048928         1.659668        -1.953673
