19
Iteration:  3175charge 0 multiplicity 1
 O        -0.550569         0.144105         0.353840
 C        -1.767999         0.888865         0.187561
 C        -3.167340         0.359671        -0.005327
 C        -3.366085         1.822746        -0.093839
 C        -2.493060         1.990291         1.123942
 C        -1.678153         3.213620         1.562967
 C        -0.811612         3.446584         0.297529
 O        -1.452070         3.096484        -0.919306
 C        -2.049936         1.883236        -1.001394
 H         0.228810         0.803691         0.360521
 H        -3.573681        -0.124078        -0.992586
 H        -3.734710        -0.041031         0.880760
 H        -4.235077         2.380414        -0.300324
 H        -2.969928         1.492902         1.990130
 H        -2.537542         3.895963         1.678536
 H        -1.170558         3.302843         2.475514
 H        -0.525858         4.528446         0.359766
 H         0.095276         2.843103         0.497375
 H        -2.122256         1.528615        -2.057603
