19
Iteration:   253
 O        -0.708240        -0.000771         0.403424
 C        -1.797227         0.892810         0.226246
 C        -3.163186         0.293433         0.107227
 C        -3.417117         1.772624        -0.029551
 C        -2.380445         2.006333         1.190624
 C        -1.751985         3.416950         1.354395
 C        -0.743842         3.493859         0.243612
 O        -1.287957         3.127032        -1.066990
 C        -2.088842         1.901781        -0.974621
 H        -0.159764         0.403857         1.145685
 H        -3.393676        -0.553647        -0.688917
 H        -3.522024         0.011576         1.100462
 H        -4.459002         2.214838        -0.074404
 H        -2.898166         1.635033         2.200349
 H        -2.614842         4.156590         1.327844
 H        -1.156859         3.497958         2.377812
 H        -0.489659         4.588181        -0.019861
 H         0.184934         2.984538         0.452377
 H        -2.037924         1.427884        -1.926084
