19
Iteration:   211
 O        -0.653610        -0.055267         0.382521
 C        -1.749360         0.847518         0.311914
 C        -3.209364         0.371501         0.020379
 C        -3.320296         1.886602         0.034101
 C        -2.414292         1.957731         1.339164
 C        -1.875850         3.447067         1.373965
 C        -0.751194         3.576479         0.161961
 O        -1.311572         3.057398        -1.117999
 C        -2.056476         1.830993        -0.926555
 H         0.156119         0.373803         0.670445
 H        -3.338113        -0.182837        -0.962271
 H        -3.757314        -0.161746         0.758355
 H        -4.289023         2.564706        -0.132548
 H        -2.899596         1.579099         2.298136
 H        -2.676444         4.157494         1.255821
 H        -1.347233         3.679204         2.281674
 H        -0.251023         4.538500        -0.069939
 H        -0.029245         2.763046         0.479732
 H        -2.200026         1.356429        -1.890109
