19
Iteration:  2353charge 0 multiplicity 1
 O        -0.554469         0.113243         0.258277
 C        -1.743609         0.854172         0.184337
 C        -3.228629         0.255615        -0.125488
 C        -3.367289         1.869227         0.044510
 C        -2.486687         1.929611         1.289587
 C        -1.817927         3.283424         1.365067
 C        -0.834486         3.497451         0.307506
 O        -1.296414         3.114888        -0.977137
 C        -2.025602         1.964295        -0.853965
 H        -0.443416        -0.089051         1.245359
 H        -3.359351        -0.127550        -1.135979
 H        -3.329185        -0.273477         0.826381
 H        -4.320475         2.498587        -0.071996
 H        -2.913071         1.502627         2.197126
 H        -2.539623         4.052404         1.275680
 H        -1.382923         3.444367         2.411554
 H        -0.677009         4.585347         0.372055
 H         0.079604         2.943181         0.410022
 H        -2.042696         1.690903        -1.872871
