19
Iteration:  1693charge 0 multiplicity 1
 O        -0.550532         0.155499         0.433023
 C        -1.746121         0.897340         0.255185
 C        -3.203167         0.300234        -0.109272
 C        -3.394704         1.866085        -0.014976
 C        -2.497444         1.923034         1.264651
 C        -1.740449         3.255427         1.438819
 C        -0.755670         3.457584         0.242103
 O        -1.400620         3.179263        -1.037640
 C        -2.069187         1.947255        -0.902064
 H        -0.494019        -0.807434         0.421662
 H        -3.268015        -0.010189        -1.147391
 H        -3.535186        -0.404546         0.651927
 H        -4.410338         2.277093        -0.217257
 H        -2.918515         1.530109         2.192939
 H        -2.533822         3.959646         1.440933
 H        -1.211780         3.349313         2.452470
 H        -0.282743         4.501712         0.037202
 H         0.094211         2.766888         0.360262
 H        -1.937982         1.453620        -1.906647
