19
Iteration:   749charge 0 multiplicity 1
 O        -0.554368         0.139577         0.315535
 C        -1.827779         0.922190         0.243966
 C        -3.272006         0.297360         0.006931
 C        -3.402713         1.888580        -0.031627
 C        -2.560583         2.029358         1.268962
 C        -1.769815         3.321583         1.400324
 C        -0.768072         3.512199         0.214679
 O        -1.245984         2.964965        -0.955788
 C        -2.022345         1.819810        -0.883472
 H        -0.032351         0.853473        -0.197611
 H        -3.322910        -0.435599        -0.788600
 H        -3.712098        -0.186078         0.873024
 H        -4.317280         2.444533        -0.269600
 H        -2.954826         1.623684         2.170579
 H        -2.408408         4.079917         1.613704
 H        -1.019953         3.262582         2.200454
 H        -0.578020         4.502470        -0.038061
 H         0.155798         2.961590         0.571953
 H        -2.121201         1.446630        -1.824095
