19
Iteration:  2339
 O        -0.575933         0.254814         0.268275
 C        -1.803357         0.873678         0.254939
 C        -3.193056         0.306028        -0.025322
 C        -3.364679         1.806077        -0.030734
 C        -2.422418         1.823765         1.213955
 C        -1.866038         3.246795         1.377917
 C        -0.741799         3.490120         0.305351
 O        -1.263185         3.132665        -0.962573
 C        -2.102304         1.965430        -0.901678
 H        -0.402415        -0.210589         1.050160
 H        -3.286434        -0.200861        -0.947687
 H        -3.906023        -0.131102         0.651369
 H        -4.353841         2.413063        -0.047195
 H        -2.805995         1.363827         2.122044
 H        -2.702529         4.004441         1.392689
 H        -1.288198         3.302042         2.346559
 H        -0.372623         4.473580         0.165445
 H         0.100107         2.851094         0.649024
 H        -2.222995         1.523338        -1.910894
