19
Iteration:  3280charge 0 multiplicity 1
 O        -0.676978         0.030344         0.434967
 C        -1.787431         0.843468         0.180098
 C        -3.175852         0.263195        -0.035169
 C        -3.319252         1.824765        -0.153125
 C        -2.497090         1.967765         1.168851
 C        -1.661602         3.162115         1.491847
 C        -0.852261         3.626762         0.249028
 O        -1.402123         3.210367        -0.934834
 C        -2.032087         1.958782        -0.908236
 H         0.168137         0.619298         0.307461
 H        -3.298208        -0.264565        -0.954893
 H        -3.528060        -0.224072         0.853297
 H        -4.448656         2.122475        -0.224515
 H        -2.762918         1.524078         2.139347
 H        -2.279134         3.964032         1.933626
 H        -0.847219         2.690994         2.195194
 H        -0.772843         4.701831         0.133944
 H         0.317406         3.340600         0.386312
 H        -1.982925         1.635710        -1.987798
