19
Iteration:  4853
 O        -0.563310         0.011177         0.359149
 C        -1.701340         0.833655         0.151221
 C        -3.067606         0.324027        -0.304745
 C        -3.294111         1.811290        -0.235348
 C        -2.569811         1.849714         1.075349
 C        -1.976585         3.109341         1.643385
 C        -0.918024         3.516336         0.587625
 O        -1.338580         3.329444        -0.834845
 C        -1.973236         2.084840        -0.944532
 H         0.196955         0.589665         0.330543
 H        -3.065785        -0.218977        -1.282178
 H        -3.644082        -0.116181         0.558865
 H        -4.239016         2.323431        -0.510120
 H        -3.060141         1.243046         1.839320
 H        -2.644025         3.896005         2.016078
 H        -1.261049         2.817628         2.472620
 H        -0.490306         4.534299         0.625545
 H        -0.123098         2.852134         0.630901
 H        -1.829855         2.005362        -2.040889
