19
Iteration:   272charge 0 multiplicity 1
 O        -0.611970         0.143994         0.473319
 C        -1.758237         0.896497         0.293208
 C        -3.228122         0.339317         0.059466
 C        -3.362862         1.930241        -0.043022
 C        -2.491581         1.966024         1.215676
 C        -1.709047         3.237279         1.398633
 C        -0.801102         3.512727         0.128541
 O        -1.352032         3.009498        -1.088578
 C        -2.081156         1.838259        -0.924472
 H         0.097566         0.666678         0.887759
 H        -3.369646        -0.121673        -0.936399
 H        -3.744890        -0.169602         0.888039
 H        -4.080864         2.556592        -0.385736
 H        -2.930029         1.529217         2.108146
 H        -2.411814         4.045542         1.721961
 H        -1.007651         3.050989         2.276816
 H        -0.423193         4.600359         0.011090
 H         0.124177         2.969828         0.404143
 H        -2.245634         1.491157        -1.967688
