19
Iteration:   315
 O        -0.645073         0.299876         0.700654
 C        -1.844592         0.891186         0.181083
 C        -3.253318         0.251035        -0.007547
 C        -3.459954         1.808677        -0.079495
 C        -2.488638         1.968139         1.126065
 C        -1.589557         3.153852         1.408093
 C        -0.676526         3.571648         0.153623
 O        -1.333275         3.076483        -1.072084
 C        -2.154320         1.877042        -0.922936
 H        -0.087804         0.138848        -0.129507
 H        -3.334596        -0.392628        -0.852112
 H        -3.555007        -0.140644         0.967025
 H        -4.317945         2.371975        -0.272812
 H        -2.858727         1.626104         2.039043
 H        -1.902065         4.001846         2.000455
 H        -0.930895         2.624373         2.063810
 H        -0.489622         4.692815         0.144782
 H         0.387108         3.172321         0.300466
 H        -2.260056         1.354918        -1.916290
