19
Iteration:  4328charge 0 multiplicity 1
 O        -0.537149         0.120223         0.370341
 C        -1.781636         0.856336         0.236091
 C        -3.188624         0.300270        -0.156288
 C        -3.372349         1.755596        -0.190401
 C        -2.522047         1.901816         1.087118
 C        -1.783756         3.232389         1.500817
 C        -0.729153         3.549863         0.427411
 O        -1.411481         3.169080        -0.835340
 C        -2.036423         1.931087        -0.927263
 H         0.153203         0.814728         0.313786
 H        -3.468090        -0.223256        -1.044836
 H        -3.775499         0.053798         0.721670
 H        -4.297660         2.267798        -0.436472
 H        -2.998969         1.402226         1.925153
 H        -2.383890         4.088452         1.800391
 H        -1.216923         3.097453         2.460871
 H        -0.678960         4.633297         0.351674
 H         0.246489         3.028197         0.341130
 H        -2.031603         1.600288        -2.016478
