19
Iteration:    24
 O        -0.718426        -0.061767         0.446416
 C        -1.856506         0.763927         0.249056
 C        -3.372110         0.390446         0.021176
 C        -3.262344         1.984451         0.020231
 C        -2.269928         1.981110         1.172675
 C        -1.454350         3.298445         1.353693
 C        -1.425135         4.028089        -0.008255
 O        -0.918414         2.735751        -0.878825
 C        -2.042896         1.794924        -0.893859
 H        -0.360604         0.373447         1.266545
 H        -3.582132        -0.122735        -0.934952
 H        -3.910196        -0.038950         0.806096
 H        -4.221373         2.641801        -0.039443
 H        -2.666708         1.698005         2.106230
 H        -1.801742         3.832586         2.239470
 H        -0.436775         3.011143         1.536947
 H        -2.335624         4.416553        -0.324298
 H        -0.597420         4.785137        -0.067039
 H        -2.279695         1.424646        -1.942026
