19
Iteration:  4720
 O        -0.654342         0.106383         0.376067
 C        -1.771950         0.891930         0.146971
 C        -3.056814         0.227386        -0.296251
 C        -3.315001         1.839217        -0.316155
 C        -2.548325         1.828406         1.169053
 C        -1.833282         3.055931         1.662499
 C        -0.855117         3.519561         0.528389
 O        -1.375113         3.337908        -0.846581
 C        -1.934267         2.042625        -0.959693
 H         0.015447         0.676976         0.844992
 H        -2.924141        -0.319110        -1.257890
 H        -3.684117        -0.267683         0.495191
 H        -4.328385         2.249715        -0.456896
 H        -3.025070         1.341257         2.007811
 H        -2.670403         3.773665         1.814927
 H        -1.170978         3.047856         2.532397
 H        -0.684033         4.597333         0.701965
 H         0.109490         2.985033         0.339988
 H        -1.989209         1.675090        -2.009578
