19
Iteration:  4699
 O        -0.543537         0.134584         0.456648
 C        -1.711455         0.880473         0.093120
 C        -3.126601         0.334422        -0.404323
 C        -3.355933         1.804378        -0.130323
 C        -2.494142         1.714789         1.157864
 C        -1.906381         3.085883         1.534865
 C        -0.861324         3.573167         0.511761
 O        -1.316317         3.283005        -0.890728
 C        -2.000364         2.056528        -0.898408
 H        -0.606110        -0.012593         1.374433
 H        -3.266289         0.129376        -1.487844
 H        -3.639722        -0.393061         0.270638
 H        -4.246723         2.450043        -0.157785
 H        -3.063862         1.279491         1.963693
 H        -2.620099         3.849392         1.884162
 H        -1.266381         2.814740         2.390964
 H        -0.768697         4.647934         0.378063
 H         0.187593         3.044061         0.642164
 H        -2.067776         1.843342        -1.986726
