19
Iteration:  3975
 O        -0.609722         0.145051         0.520863
 C        -1.731848         0.864445         0.131926
 C        -3.130085         0.284773        -0.158788
 C        -3.463138         1.812306        -0.050214
 C        -2.394890         1.846950         1.213474
 C        -1.838259         3.234396         1.397569
 C        -0.691866         3.475479         0.329986
 O        -1.387061         3.242564        -0.930520
 C        -2.059018         1.982052        -0.910827
 H        -0.287113        -0.364359        -0.181540
 H        -3.492031        -0.153214        -1.121229
 H        -3.450094        -0.390228         0.690895
 H        -4.370559         2.393482        -0.177433
 H        -2.860110         1.452233         2.111211
 H        -2.556775         4.011753         1.146443
 H        -1.531691         3.628864         2.413638
 H        -0.334369         4.488016         0.410573
 H         0.128149         2.856657         0.502190
 H        -2.182757         1.600395        -1.966062
