19
Iteration:  2344charge 0 multiplicity 1
 O        -0.575086         0.219693         0.256931
 C        -1.804752         0.858309         0.251221
 C        -3.187993         0.320077        -0.043544
 C        -3.348209         1.800176         0.005611
 C        -2.454341         1.827095         1.205526
 C        -1.886020         3.262519         1.360280
 C        -0.773006         3.466721         0.297009
 O        -1.265850         3.129343        -0.946442
 C        -2.072123         2.020603        -0.889765
 H        -0.386700        -0.196763         1.165991
 H        -3.345134        -0.299992        -0.993867
 H        -3.860419        -0.237577         0.668825
 H        -4.186802         2.439610         0.003359
 H        -2.765608         1.416019         2.193716
 H        -2.617626         4.056419         1.403730
 H        -1.242357         3.358631         2.237342
 H        -0.438908         4.544463         0.124785
 H         0.159075         2.916583         0.526742
 H        -2.136849         1.482059        -1.838687
