19
Iteration:  3084charge 0 multiplicity 1
 O        -0.530459         0.138568         0.393271
 C        -1.778171         0.923226         0.218504
 C        -3.173119         0.279742        -0.005809
 C        -3.383977         1.858413        -0.103226
 C        -2.502877         1.864254         1.213464
 C        -1.737100         3.148882         1.469240
 C        -0.816283         3.551606         0.271889
 O        -1.384488         3.214509        -1.004824
 C        -2.020285         1.945676        -0.902803
 H        -0.893488        -0.732638         0.043605
 H        -3.433164        -0.343148        -0.941422
 H        -3.727264        -0.063039         0.894789
 H        -4.233914         2.591840        -0.382042
 H        -2.647952         1.274644         2.202955
 H        -2.390834         4.001487         1.511873
 H        -1.286519         3.255477         2.464442
 H        -0.623813         4.617132         0.229406
 H         0.228511         3.193456         0.465133
 H        -2.004048         1.425887        -1.935421
