19
Iteration:  4832charge 0 multiplicity 1
 O        -0.535709         0.113096         0.212860
 C        -1.757712         0.909917         0.153258
 C        -3.114933         0.289845        -0.307419
 C        -3.306820         1.829910        -0.309104
 C        -2.615830         1.860980         1.165495
 C        -1.914909         3.090279         1.601119
 C        -0.834270         3.533398         0.583336
 O        -1.376774         3.273859        -0.731368
 C        -1.916343         1.905271        -0.905564
 H        -0.046873         0.553006         0.911262
 H        -3.289936        -0.150704        -1.307817
 H        -3.518116        -0.235034         0.574880
 H        -4.088440         2.579139        -0.481279
 H        -3.185029         1.232412         1.824574
 H        -2.627699         3.924331         1.519253
 H        -1.400457         3.214749         2.569026
 H        -0.800918         4.612079         0.806750
 H         0.137788         3.074660         0.751446
 H        -1.647984         1.692304        -1.945150
