19
Iteration:  3054
 O        -0.561152         0.211848         0.295267
 C        -1.776569         0.907061         0.156043
 C        -3.116445         0.180943        -0.091090
 C        -3.417732         1.792364        -0.016734
 C        -2.511000         1.990563         1.194012
 C        -1.741952         3.369917         1.488980
 C        -0.743250         3.476629         0.344438
 O        -1.380580         3.127465        -0.905831
 C        -2.083359         1.902787        -0.951412
 H        -0.766960        -0.573161         0.751854
 H        -3.360000        -0.187195        -1.165880
 H        -3.686367        -0.380324         0.672241
 H        -4.398396         2.328868        -0.168522
 H        -2.556124         1.500336         2.121858
 H        -2.281154         4.386999         1.456852
 H        -1.300258         3.192047         2.462381
 H        -0.383629         4.508534         0.137307
 H        -0.019030         2.667550         0.678665
 H        -2.091651         1.418423        -1.967946
