19
Iteration:  3757charge 0 multiplicity 1
 O        -0.512423         0.264051         0.373767
 C        -1.853565         0.923046         0.204814
 C        -3.146928         0.261743        -0.049002
 C        -3.483570         1.783119        -0.147672
 C        -2.579771         2.008240         1.114111
 C        -1.771939         3.226977         1.482162
 C        -0.688782         3.399321         0.374515
 O        -1.299668         3.120702        -0.900313
 C        -2.088005         1.864697        -0.885366
 H        -0.052941         0.937988        -0.208793
 H        -3.203551        -0.289017        -0.965801
 H        -3.664137        -0.151980         0.872384
 H        -4.446689         2.193783        -0.522651
 H        -3.014431         1.507707         1.975149
 H        -2.375523         4.096313         1.675863
 H        -1.258515         2.913258         2.377470
 H        -0.364248         4.413204         0.361402
 H         0.148808         2.779245         0.425246
 H        -2.021804         1.564865        -1.979598
