19
Iteration:  4256charge 0 multiplicity 1
 O        -0.621653         0.166956         0.327058
 C        -1.758354         0.785279         0.107133
 C        -3.182365         0.263725        -0.135820
 C        -3.251896         1.814021        -0.138216
 C        -2.460974         1.911303         1.128312
 C        -1.809383         3.286711         1.525499
 C        -0.779096         3.544211         0.384003
 O        -1.453235         3.193442        -0.852550
 C        -1.964991         1.881323        -0.918333
 H        -0.463431         0.014406         1.337940
 H        -3.381985        -0.211907        -1.131752
 H        -3.692203        -0.142996         0.786838
 H        -4.202211         2.376211        -0.243164
 H        -2.941279         1.566781         2.111816
 H        -2.430951         4.201815         1.560009
 H        -1.437540         3.235336         2.526953
 H        -0.493099         4.592546         0.163659
 H         0.124727         2.931974         0.498277
 H        -1.995570         1.556275        -1.936670
