19
Iteration:  3734charge 0 multiplicity 1
 O        -0.573977         0.229034         0.421958
 C        -1.821935         0.932151         0.143555
 C        -3.180782         0.246668         0.006555
 C        -3.337798         1.841499        -0.156814
 C        -2.518490         1.915872         1.234544
 C        -1.811460         3.179141         1.506769
 C        -0.821479         3.429939         0.377049
 O        -1.272431         3.145718        -0.960567
 C        -2.061481         1.925849        -1.015141
 H         0.051476         0.514432        -0.301280
 H        -3.417535        -0.259196        -0.919514
 H        -3.643361        -0.118766         0.970149
 H        -4.300619         2.430655        -0.308308
 H        -3.058241         1.415959         2.030665
 H        -2.443490         4.018960         1.566489
 H        -1.194566         3.128230         2.392275
 H        -0.607703         4.491032         0.262613
 H         0.078044         2.895127         0.538251
 H        -1.876958         1.560315        -2.064401
