19
Iteration:  1845charge 0 multiplicity 1
 O        -0.664681        -0.052477         0.276256
 C        -1.785894         0.846461         0.224439
 C        -3.154005         0.297046        -0.013224
 C        -3.309875         1.858261         0.001356
 C        -2.390119         1.923384         1.242614
 C        -1.828885         3.366317         1.459637
 C        -0.878622         3.643444         0.241134
 O        -1.319798         3.135486        -1.034520
 C        -2.005265         1.886679        -0.895603
 H        -0.281949         0.000750         1.212818
 H        -3.246764        -0.326558        -0.974021
 H        -3.729681        -0.251138         0.820381
 H        -4.093947         2.630106         0.066324
 H        -2.949904         1.479314         2.120097
 H        -2.545586         4.182829         1.485779
 H        -1.132238         3.419218         2.399879
 H        -0.729692         4.796926         0.097594
 H         0.080861         3.115538         0.316021
 H        -1.984684         1.484430        -1.843552
