19
Iteration:  2320
 O        -0.488933         0.342876         0.311470
 C        -1.815318         0.906301         0.134879
 C        -3.228964         0.282686        -0.041968
 C        -3.436937         1.806359        -0.067542
 C        -2.497822         1.943077         1.179706
 C        -1.737807         3.261730         1.532880
 C        -0.740150         3.405018         0.394023
 O        -1.329958         3.061660        -0.967151
 C        -2.102304         1.900898        -0.971809
 H        -0.644860        -0.368375         0.897794
 H        -3.537230        -0.370236        -0.857261
 H        -3.445201        -0.395917         0.805906
 H        -4.318332         2.471275        -0.371139
 H        -2.844752         1.539622         2.122623
 H        -2.361783         4.090936         1.401984
 H        -1.202782         3.448592         2.522877
 H        -0.492716         4.471063         0.264909
 H         0.202770         2.899927         0.373469
 H        -2.134823         1.400612        -1.894387
