19
Iteration:   151
 O        -0.624941         0.370121         0.639537
 C        -1.875066         0.823843         0.281549
 C        -3.347350         0.261660        -0.045044
 C        -3.406617         1.854720        -0.125052
 C        -2.499024         2.007671         1.231214
 C        -1.432667         3.104284         1.394385
 C        -0.850570         3.625994         0.142766
 O        -1.301802         3.040198        -1.054044
 C        -2.044246         1.770370        -0.947922
 H        -0.219162        -0.124031        -0.046483
 H        -3.522466        -0.320501        -0.949569
 H        -3.891540        -0.160161         0.904623
 H        -4.270820         2.352512        -0.378076
 H        -3.113149         1.928151         2.202214
 H        -1.769796         3.912822         2.106446
 H        -0.629624         2.534806         2.011281
 H        -1.072767         4.753891         0.099580
 H         0.209664         3.586725         0.185630
 H        -2.024523         1.316997        -1.976970
