19
Iteration:  4100
 O        -0.586300         0.072474         0.412269
 C        -1.751148         0.901820         0.204194
 C        -3.246937         0.317759        -0.165821
 C        -3.323217         1.827308        -0.033144
 C        -2.405033         1.756400         1.258320
 C        -1.864879         3.194733         1.416229
 C        -0.776220         3.513467         0.317569
 O        -1.304344         3.262759        -0.981975
 C        -2.057549         2.025440        -0.949324
 H        -0.305561         0.179778         1.288653
 H        -3.292562        -0.307259        -1.109488
 H        -3.697592        -0.343380         0.618576
 H        -4.237406         2.454315        -0.130146
 H        -2.831254         1.222111         2.143658
 H        -2.691004         3.909174         1.317550
 H        -1.348541         3.473284         2.337846
 H        -0.766518         4.629602         0.252631
 H         0.169185         3.084919         0.504425
 H        -2.240070         1.617316        -1.985278
