19
Iteration:   967charge 0 multiplicity 1
 O        -0.671018        -0.092703         0.363074
 C        -1.771544         0.834788         0.289785
 C        -3.247831         0.349887         0.039040
 C        -3.322150         1.872430        -0.017560
 C        -2.322941         1.930432         1.194234
 C        -1.800187         3.274132         1.409374
 C        -0.948031         3.666156         0.261234
 O        -1.204575         3.094723        -1.038429
 C        -2.025690         1.944406        -0.961738
 H         0.144848         0.345014         0.061067
 H        -3.605766        -0.207271        -0.832936
 H        -3.750628         0.009132         0.958892
 H        -4.154952         2.659391         0.039176
 H        -2.939615         1.604569         2.043197
 H        -2.781636         3.793307         1.539524
 H        -1.287627         3.524007         2.476939
 H        -0.874287         4.767421         0.160521
 H         0.082572         3.255661         0.535334
 H        -2.153588         1.462329        -2.048488
