19
Iteration:  1771
 O        -0.578065         0.242906         0.534398
 C        -1.808446         0.898606         0.235601
 C        -3.195975         0.299935        -0.132152
 C        -3.397041         1.919712        -0.016317
 C        -2.469827         1.886642         1.204325
 C        -1.675623         3.217502         1.477210
 C        -0.754448         3.478351         0.237115
 O        -1.395264         3.064145        -0.994042
 C        -2.105101         1.876317        -0.959501
 H        -0.002863         0.217350        -0.186423
 H        -3.266290        -0.237310        -1.086426
 H        -3.680246        -0.329293         0.591470
 H        -4.426911         2.506303        -0.042517
 H        -2.864360         1.326774         2.049651
 H        -2.441851         3.998328         1.568399
 H        -0.979473         3.235647         2.358497
 H        -0.559742         4.585687         0.076595
 H         0.242445         2.979365         0.279493
 H        -2.170234         1.606064        -2.096643
