19
Iteration:  1602charge 0 multiplicity 1
 O        -0.543757         0.176170         0.363975
 C        -1.808698         0.836307         0.311307
 C        -3.359478         0.331808        -0.175994
 C        -3.306750         1.858808        -0.071317
 C        -2.449064         1.962058         1.284209
 C        -1.680898         3.188681         1.541303
 C        -0.867879         3.696155         0.257827
 O        -1.327356         3.002478        -1.046461
 C        -2.037286         1.839687        -0.938955
 H        -0.441650        -0.160978         1.233714
 H        -3.209861        -0.058231        -1.217541
 H        -4.041529        -0.254562         0.507612
 H        -4.112217         2.542160        -0.292951
 H        -2.816417         1.434635         2.164812
 H        -2.271747         3.947021         1.878138
 H        -0.860071         2.994963         2.389389
 H        -1.056333         4.821916         0.207361
 H         0.228063         3.596652         0.187511
 H        -1.955876         1.437700        -1.940269
