19
Iteration:  3239charge 0 multiplicity 1
 O        -0.633356         0.081606         0.337816
 C        -1.742900         0.855159         0.197079
 C        -3.149218         0.292989        -0.119402
 C        -3.378711         1.835161         0.027809
 C        -2.357225         1.871463         1.200963
 C        -1.765279         3.303776         1.477195
 C        -0.851541         3.533285         0.286999
 O        -1.380049         3.131308        -0.961481
 C        -2.053300         1.967416        -0.916531
 H        -0.061994         0.452493         0.986581
 H        -3.536423        -0.133965        -1.078744
 H        -3.678554        -0.156399         0.701973
 H        -4.290667         2.346667        -0.233557
 H        -3.002448         1.498109         2.062968
 H        -2.598690         4.011077         1.574496
 H        -1.052091         3.439528         2.331262
 H        -0.404886         4.522202         0.142754
 H        -0.072314         2.812387         0.356813
 H        -2.105686         1.611772        -2.013786
