19
Iteration:  1187
 O        -0.546386         0.202932         0.587603
 C        -1.799101         0.859554         0.168349
 C        -3.360875         0.362531        -0.059867
 C        -3.352753         1.898464        -0.129995
 C        -2.377930         1.900748         1.247950
 C        -1.606764         3.089675         1.491911
 C        -0.914171         3.576315         0.253264
 O        -1.306937         3.071661        -1.030661
 C        -2.086559         1.891210        -0.987791
 H         0.067323         0.215548        -0.122042
 H        -3.626412        -0.155343        -0.996852
 H        -3.866808        -0.098351         0.780181
 H        -4.291262         2.431617        -0.320692
 H        -2.907359         1.455406         2.114162
 H        -2.330105         3.932303         1.745730
 H        -0.955352         3.083006         2.311108
 H        -0.945772         4.701553         0.191762
 H         0.127957         3.324611         0.376973
 H        -2.234031         1.496717        -2.087225
