19
Iteration:  2471charge 0 multiplicity 1
 O        -0.504926         0.291169         0.395610
 C        -1.780074         0.878905         0.156117
 C        -3.224939         0.221065         0.054365
 C        -3.400628         1.826967        -0.132159
 C        -2.511244         1.901914         1.188223
 C        -1.755976         3.172005         1.422017
 C        -0.737695         3.426893         0.331335
 O        -1.345361         3.241360        -0.956956
 C        -2.117913         1.975283        -0.944364
 H        -0.483294        -0.615573         0.542652
 H        -3.369324        -0.243873        -0.903314
 H        -3.553838        -0.304967         1.000485
 H        -4.425999         2.315342        -0.602435
 H        -2.894725         1.390490         2.110579
 H        -2.331749         4.147768         1.618220
 H        -1.087436         3.092273         2.341195
 H        -0.287726         4.417226         0.275100
 H         0.034644         2.578507         0.404803
 H        -2.249320         1.606404        -2.009406
