19
Iteration:  2286
 O        -0.543413         0.294526         0.399616
 C        -1.822941         0.926281         0.290994
 C        -3.166845         0.236215        -0.064083
 C        -3.440841         1.798189        -0.142331
 C        -2.518521         1.918743         1.224464
 C        -1.630247         3.164984         1.492852
 C        -0.721431         3.395029         0.309535
 O        -1.433211         3.221933        -1.067880
 C        -2.090845         1.964786        -0.917934
 H        -0.552251        -0.552918         0.773587
 H        -3.133684        -0.193177        -1.039171
 H        -3.565858        -0.244992         0.831506
 H        -4.321023         2.497557        -0.467698
 H        -3.077603         1.523545         2.062069
 H        -2.271146         3.963856         1.546246
 H        -1.025414         3.061179         2.468232
 H        -0.506676         4.439217         0.275257
 H         0.140459         2.754625         0.387838
 H        -1.960264         1.375580        -1.768488
