19
Iteration:  3560
 O        -0.547284         0.167116         0.242431
 C        -1.780325         0.873904         0.243946
 C        -3.196070         0.217224        -0.079313
 C        -3.365225         1.815129        -0.183100
 C        -2.548410         1.927984         1.181279
 C        -1.848181         3.233830         1.491778
 C        -0.682114         3.472457         0.408680
 O        -1.366819         3.200740        -0.871999
 C        -2.051859         1.939603        -0.936529
 H        -0.042678         0.108463         1.021681
 H        -3.231531        -0.440229        -0.892559
 H        -3.737122        -0.320548         0.709455
 H        -4.178281         2.649486        -0.281692
 H        -3.021103         1.475099         2.070669
 H        -2.530637         4.160559         1.311527
 H        -1.525474         3.425443         2.510916
 H        -0.336528         4.543461         0.415769
 H         0.240468         2.830533         0.368317
 H        -1.943609         1.646574        -1.983448
