19
Iteration:  2954charge 0 multiplicity 1
 O        -0.609128         0.048332         0.420906
 C        -1.773648         0.847609         0.236773
 C        -3.238843         0.377757        -0.089278
 C        -3.319202         1.845656        -0.087744
 C        -2.448308         1.818614         1.216979
 C        -1.710387         3.114145         1.492689
 C        -0.858755         3.628316         0.217829
 O        -1.432406         3.265398        -1.046015
 C        -1.940966         1.953382        -0.885925
 H        -0.083720         0.132589         1.300918
 H        -3.429714        -0.345078        -0.978913
 H        -3.870845         0.037880         0.755370
 H        -4.399331         2.100073        -0.247333
 H        -2.820982         1.270709         2.039362
 H        -2.423036         3.977595         1.779522
 H        -0.834827         3.035536         2.094802
 H        -0.800892         4.730100         0.312034
 H         0.261902         3.258071         0.344929
 H        -2.051918         1.485162        -1.917984
