19
Iteration:  4944
 O        -0.502477         0.286572         0.298932
 C        -1.795716         0.928656         0.077505
 C        -3.062790         0.244380        -0.265355
 C        -3.401183         1.763120        -0.300829
 C        -2.633392         1.837039         1.048737
 C        -1.915805         3.104158         1.624768
 C        -0.845547         3.452990         0.598589
 O        -1.296356         3.279055        -0.694028
 C        -1.907391         2.056253        -0.946005
 H        -0.810375        -0.688941         0.411196
 H        -2.905380        -0.240012        -1.269815
 H        -3.494841        -0.341955         0.590721
 H        -4.238464         2.392116        -0.523413
 H        -3.065652         1.310489         1.941532
 H        -2.670379         3.900409         1.822595
 H        -1.443933         2.729473         2.583004
 H        -0.629653         4.522224         0.788856
 H         0.039439         2.853612         0.670696
 H        -1.848812         1.616677        -2.038906
