19
Iteration:  1034charge 0 multiplicity 1
 O        -0.664731         0.173783         0.563352
 C        -1.765113         0.932773         0.188671
 C        -3.329199         0.317897        -0.033180
 C        -3.277727         1.827880        -0.051830
 C        -2.431750         1.832270         1.156825
 C        -1.551149         2.992387         1.446541
 C        -0.882907         3.635586         0.197105
 O        -1.378919         3.142310        -1.068216
 C        -2.037130         1.935019        -0.959296
 H        -0.252503         0.536776         1.366262
 H        -3.577427        -0.272853        -0.948577
 H        -3.883663         0.118992         0.888163
 H        -4.067268         2.519788        -0.329355
 H        -2.996263         1.602868         2.058663
 H        -2.116797         3.830747         1.940118
 H        -0.744703         2.662454         2.250142
 H        -1.155473         4.742234         0.159140
 H         0.234491         3.569530         0.157782
 H        -2.040493         1.665235        -2.103606
