19
Iteration:  1981
 O        -0.597806         0.083129         0.305363
 C        -1.786108         0.784402         0.268658
 C        -3.191776         0.348329        -0.066874
 C        -3.301366         1.836356         0.014709
 C        -2.450899         1.894707         1.312048
 C        -1.805072         3.319622         1.425723
 C        -0.877062         3.644027         0.207744
 O        -1.309800         3.099322        -1.051938
 C        -1.954580         1.953739        -0.891622
 H        -0.707387        -0.757719         0.851222
 H        -3.479473        -0.205168        -0.912124
 H        -3.591397        -0.082259         0.828935
 H        -4.349373         2.219734         0.095089
 H        -2.861134         1.421679         2.156782
 H        -2.563245         4.111722         1.377287
 H        -1.317793         3.375321         2.377859
 H        -0.786144         4.679094         0.198292
 H         0.085055         3.126988         0.370166
 H        -2.093733         1.545078        -1.947287
