19
Iteration:  3149
 O        -0.667602         0.112057         0.428650
 C        -1.830061         0.908376         0.255519
 C        -3.131522         0.216114        -0.058031
 C        -3.401051         1.792563        -0.051945
 C        -2.512916         1.922491         1.192217
 C        -1.680158         3.170223         1.463281
 C        -0.773392         3.591746         0.240374
 O        -1.373103         3.205840        -1.016553
 C        -2.010828         1.966698        -0.891496
 H         0.065747         0.500847        -0.147750
 H        -3.277816        -0.318201        -1.013781
 H        -3.676031        -0.247368         0.754127
 H        -4.249791         2.493330        -0.466897
 H        -2.811840         1.371079         2.197361
 H        -2.389069         3.839848         1.967980
 H        -0.893852         2.941889         2.273580
 H        -0.744757         4.664401         0.327355
 H         0.144266         3.050361         0.374364
 H        -2.039716         1.526064        -1.953280
