19
Iteration:  2805charge 0 multiplicity 1
 O        -0.542499         0.229982         0.524948
 C        -1.674040         0.883385         0.207660
 C        -3.268700         0.300987        -0.109772
 C        -3.357680         1.796989        -0.085485
 C        -2.398966         1.860603         1.165709
 C        -1.731249         3.213598         1.513269
 C        -0.843857         3.502328         0.264014
 O        -1.390332         3.183741        -0.951621
 C        -2.102025         1.984260        -1.011829
 H        -0.687708        -0.701144         0.286236
 H        -3.290166         0.167141        -1.226275
 H        -3.872324        -0.396148         0.460101
 H        -4.423929         2.243184        -0.233572
 H        -2.912426         1.480052         2.138091
 H        -2.519476         3.883650         1.807611
 H        -1.052804         3.127109         2.437434
 H        -0.219783         4.529042         0.123438
 H         0.061901         2.725565         0.421927
 H        -2.232478         1.553271        -2.002266
