19
Iteration:   142charge 0 multiplicity 1
 O        -0.615643         0.355619         0.673208
 C        -1.862537         0.923141         0.313858
 C        -3.281305         0.364604        -0.013752
 C        -3.347799         1.896059        -0.141818
 C        -2.539270         1.963086         1.208680
 C        -1.453195         3.005654         1.417380
 C        -0.863192         3.654128         0.104064
 O        -1.347844         2.980604        -1.085723
 C        -2.060161         1.800164        -0.949702
 H        -0.432290        -0.321718         0.046267
 H        -3.320134        -0.193676        -1.005962
 H        -3.858738        -0.204917         0.762622
 H        -4.214606         2.413140        -0.255442
 H        -3.033086         1.465694         2.157751
 H        -1.795335         3.836360         2.076895
 H        -0.581415         2.467273         1.936912
 H        -1.210128         4.773422         0.017279
 H         0.207268         3.531795         0.199616
 H        -2.055418         1.303733        -1.890089
