19
Iteration:  2324
 O        -0.500755         0.337612         0.297498
 C        -1.809466         0.906282         0.158592
 C        -3.233963         0.287027        -0.041878
 C        -3.445988         1.838507        -0.078838
 C        -2.452814         1.932192         1.203415
 C        -1.731696         3.241835         1.526480
 C        -0.747982         3.442739         0.397228
 O        -1.308492         3.076024        -0.992548
 C        -2.121807         1.863244        -0.946541
 H        -0.659793        -0.390201         0.992417
 H        -3.504928        -0.402517        -0.962224
 H        -3.469545        -0.393719         0.842286
 H        -4.324863         2.319746        -0.354515
 H        -2.873700         1.503906         2.174215
 H        -2.552572         4.068164         1.317213
 H        -1.367212         3.453179         2.514931
 H        -0.397378         4.529969         0.353163
 H         0.204661         2.813256         0.385884
 H        -2.173210         1.472660        -2.066242
