19
Iteration:  3706charge 0 multiplicity 1
 O        -0.586542         0.063689         0.520365
 C        -1.776619         0.898511         0.168048
 C        -3.209388         0.272846        -0.227711
 C        -3.333411         1.821298        -0.038217
 C        -2.420679         1.838904         1.267813
 C        -1.805567         3.255530         1.384130
 C        -0.799925         3.642037         0.329763
 O        -1.335779         3.129338        -0.940568
 C        -2.099006         1.964698        -0.887860
 H         0.025328         0.025676        -0.305475
 H        -3.318918         0.110427        -1.298024
 H        -3.776959        -0.345836         0.435183
 H        -4.129538         2.504002         0.038395
 H        -2.936026         1.446135         2.168208
 H        -2.691495         4.029222         1.459624
 H        -1.262611         3.226901         2.353548
 H        -0.635003         4.720570         0.073761
 H         0.185555         3.036350         0.416714
 H        -1.965116         1.554109        -1.856336
