19
Iteration:  2926
 O        -0.683616         0.015403         0.448057
 C        -1.782227         0.843239         0.081283
 C        -3.108830         0.256162        -0.148544
 C        -3.255259         1.882033         0.020410
 C        -2.380447         1.913256         1.180786
 C        -1.732077         3.254804         1.457524
 C        -0.812048         3.630524         0.351502
 O        -1.436302         3.146740        -0.970638
 C        -2.104614         1.947756        -0.969927
 H        -0.169431         0.230922         1.314832
 H        -3.483448        -0.037170        -1.097095
 H        -3.522795        -0.283221         0.713899
 H        -4.330927         2.174142        -0.132361
 H        -2.881216         1.250074         2.017174
 H        -2.436508         4.060548         1.591284
 H        -0.968538         3.357513         2.312131
 H        -0.678834         4.755461         0.146878
 H         0.196669         3.372465         0.465674
 H        -2.299789         1.512485        -1.948462
