19
Iteration:  2234charge 0 multiplicity 1
 O        -0.600981         0.048052         0.435883
 C        -1.790659         0.862688         0.206956
 C        -3.195977         0.299879        -0.095865
 C        -3.284896         1.793390        -0.026624
 C        -2.454141         1.870531         1.250871
 C        -1.693522         3.208985         1.467668
 C        -0.807120         3.632374         0.205887
 O        -1.405824         3.228938        -1.002024
 C        -2.040269         1.978137        -0.975835
 H        -0.711734        -0.420362         1.274139
 H        -3.270244        -0.249226        -1.123650
 H        -3.649934        -0.044824         0.914196
 H        -4.282954         2.227441        -0.293938
 H        -2.999460         1.362099         2.110987
 H        -2.578594         3.942083         1.590753
 H        -1.063567         3.274801         2.394882
 H        -0.695623         4.729597         0.027563
 H         0.181198         3.110969         0.500293
 H        -2.214048         1.612257        -2.035070
