19
Iteration:   539charge 0 multiplicity 1
 O        -0.648091         0.094060         0.597246
 C        -1.830342         0.839815         0.275494
 C        -3.215934         0.297196        -0.013603
 C        -3.365434         1.894138        -0.075579
 C        -2.470850         1.962476         1.191381
 C        -1.655394         3.250636         1.452189
 C        -0.770937         3.632153         0.134622
 O        -1.348349         3.080517        -1.060199
 C        -2.059309         1.861052        -0.939764
 H        -0.223061        -0.178895        -0.211518
 H        -3.353747        -0.217721        -0.976557
 H        -3.659033        -0.270673         0.862661
 H        -4.330062         2.447243        -0.360972
 H        -2.983476         1.650957         2.117649
 H        -2.286406         4.118039         1.630811
 H        -1.017795         3.127749         2.352491
 H        -0.673028         4.707811        -0.002732
 H         0.351664         3.320356         0.285177
 H        -2.063654         1.375479        -1.875682
