19
Iteration:  3633
 O        -0.516863         0.212741         0.401114
 C        -1.782615         0.902111         0.289133
 C        -3.245178         0.279978        -0.169595
 C        -3.384179         1.841392        -0.145665
 C        -2.506356         1.876817         1.135224
 C        -1.737140         3.175697         1.487568
 C        -0.767395         3.575801         0.338998
 O        -1.381391         3.210572        -0.922257
 C        -2.033741         1.872743        -0.912731
 H        -0.774359        -0.634053         0.846238
 H        -3.422940        -0.403510        -1.116837
 H        -3.755098        -0.351764         0.619703
 H        -4.274825         2.404327        -0.403939
 H        -3.012478         1.436228         2.009887
 H        -2.323651         3.950044         1.913876
 H        -0.955331         2.907200         2.295308
 H        -0.656307         4.689427         0.125432
 H         0.219545         3.170517         0.482111
 H        -1.788283         1.500951        -2.005238
