19
Iteration:  2411
 O        -0.575340         0.131579         0.421281
 C        -1.756293         0.855118         0.223414
 C        -3.226155         0.345521        -0.045426
 C        -3.330581         1.829107        -0.099517
 C        -2.449848         1.856413         1.175372
 C        -1.728446         3.165622         1.525870
 C        -0.786351         3.637312         0.265029
 O        -1.414447         3.196457        -1.036490
 C        -2.039442         1.948914        -0.935896
 H        -0.609478        -0.547476         1.099680
 H        -3.424191        -0.282419        -0.949813
 H        -3.744957        -0.313958         0.592401
 H        -4.248714         2.228887        -0.203748
 H        -2.870591         1.253472         2.024961
 H        -2.274684         4.055951         1.695908
 H        -1.237643         2.800482         2.390869
 H        -0.746744         4.769628         0.326833
 H         0.239604         3.315443         0.245612
 H        -2.035539         1.549617        -1.986778
