19
Iteration:    92
 O        -0.726851        -0.017662         0.642195
 C        -1.822948         0.773105         0.262968
 C        -3.296923         0.327221        -0.005168
 C        -3.352387         1.869135        -0.095698
 C        -2.303544         1.954197         1.167849
 C        -1.496904         3.230381         1.349922
 C        -1.042893         3.936979         0.060575
 O        -1.223037         3.040228        -1.031522
 C        -2.035112         1.825019        -0.817818
 H        -0.568372        -0.816536         0.059703
 H        -3.433284        -0.332690        -0.866761
 H        -3.803675        -0.080341         0.843990
 H        -4.337874         2.565630        -0.353479
 H        -2.685701         1.749843         2.102230
 H        -2.168705         3.823583         1.971433
 H        -0.664078         2.966665         1.956727
 H        -1.535998         4.835819        -0.114922
 H         0.057361         4.259856         0.180683
 H        -2.045622         1.393615        -1.910226
