19
Iteration:  2628charge 0 multiplicity 1
 O        -0.512950         0.160393         0.461867
 C        -1.723846         0.885846         0.160265
 C        -3.245990         0.364650        -0.140205
 C        -3.416826         1.812517        -0.099658
 C        -2.403186         1.817412         1.185095
 C        -1.732035         3.187913         1.449912
 C        -0.752431         3.556972         0.345995
 O        -1.436633         3.146551        -0.976266
 C        -2.113064         1.981452        -0.956275
 H        -0.555986        -0.109670         1.420961
 H        -3.419025        -0.113743        -1.093513
 H        -3.688869        -0.129097         0.701703
 H        -4.237940         2.422487        -0.082890
 H        -2.950401         1.351089         1.958752
 H        -2.471441         3.961711         1.551326
 H        -1.153032         2.983005         2.381958
 H        -0.378616         4.629737         0.288657
 H         0.214678         3.007316         0.360949
 H        -2.113218         1.533910        -1.901303
