19
Iteration:    16charge 0 multiplicity 1
 O        -0.694174        -0.026007         0.466550
 C        -1.867234         0.767284         0.265647
 C        -3.314960         0.378330         0.036981
 C        -3.281979         2.014032        -0.006374
 C        -2.314742         1.957234         1.215506
 C        -1.440059         3.267740         1.331353
 C        -1.387933         4.060710         0.066011
 O        -0.961233         2.710268        -0.943513
 C        -2.066442         1.789590        -0.923173
 H        -0.496998         0.070957         1.411802
 H        -3.493512        -0.091828        -0.946252
 H        -3.824702        -0.127889         0.830106
 H        -4.154115         2.838848        -0.296563
 H        -2.688796         1.639371         2.151427
 H        -1.812690         3.811468         2.216790
 H        -0.410186         3.014747         1.547432
 H        -2.212313         4.614522        -0.345786
 H        -0.545311         4.801676        -0.035121
 H        -2.377150         1.363774        -2.027925
