19
Iteration:   354charge 0 multiplicity 1
 O        -0.611026         0.119264         0.492498
 C        -1.744228         0.863929         0.294146
 C        -3.222354         0.343677        -0.044928
 C        -3.330050         1.877879        -0.089455
 C        -2.414563         1.956409         1.209015
 C        -1.708759         3.349981         1.392242
 C        -0.770106         3.514118         0.212547
 O        -1.471452         3.120125        -1.094449
 C        -2.009299         1.849828        -0.882471
 H        -0.721780        -0.700515         0.941733
 H        -3.505761        -0.317926        -0.913427
 H        -3.678889        -0.119121         0.885971
 H        -4.267716         2.612282        -0.213737
 H        -2.806102         1.423112         2.174112
 H        -2.461217         4.138483         1.616710
 H        -1.037598         3.198566         2.323175
 H        -0.385973         4.461693         0.004498
 H         0.013831         2.791997         0.271202
 H        -2.033622         1.344317        -1.853267
