19
Iteration:  3464charge 0 multiplicity 1
 O        -0.647321         0.024002         0.440496
 C        -1.804495         0.927926         0.280550
 C        -3.105383         0.332629        -0.118978
 C        -3.356855         1.829462        -0.185455
 C        -2.515013         1.850258         1.180955
 C        -1.662501         3.148747         1.553886
 C        -0.884421         3.675034         0.303184
 O        -1.326149         3.136343        -0.929802
 C        -2.053357         1.975882        -0.984464
 H        -0.041115         0.703606         0.092243
 H        -3.128586        -0.276331        -1.096167
 H        -3.784842        -0.195019         0.656071
 H        -4.380015         2.317619        -0.496024
 H        -3.067525         1.482551         2.083221
 H        -2.211654         3.902295         2.109070
 H        -1.009420         2.700378         2.274613
 H        -0.894464         4.744973         0.133137
 H         0.187169         3.459804         0.347493
 H        -2.108009         1.436930        -1.922868
