19
Iteration:  3160charge 0 multiplicity 1
 O        -0.608269         0.123970         0.386179
 C        -1.762363         0.890463         0.230853
 C        -3.190204         0.278262        -0.028567
 C        -3.373871         1.885122        -0.180216
 C        -2.447010         1.901678         1.233678
 C        -1.719437         3.209094         1.515296
 C        -0.821520         3.521775         0.306621
 O        -1.404511         3.173613        -0.983475
 C        -2.084472         1.898763        -0.930666
 H         0.122252         0.591731         0.046742
 H        -3.120835        -0.423363        -0.875049
 H        -3.592492        -0.212348         0.847464
 H        -4.405108         2.414835        -0.426530
 H        -3.054906         1.520513         2.158991
 H        -2.155501         4.144129         1.865840
 H        -0.993433         2.823820         2.324078
 H        -0.532962         4.572057         0.177510
 H         0.167845         3.080456         0.358536
 H        -2.048555         1.430962        -1.980626
