19
Iteration:   248charge 0 multiplicity 1
 O        -0.740275        -0.021487         0.390267
 C        -1.773524         0.876794         0.212515
 C        -3.133929         0.256406         0.110901
 C        -3.428993         1.784214         0.012670
 C        -2.398798         1.992347         1.210260
 C        -1.789533         3.442132         1.347315
 C        -0.654395         3.539098         0.218298
 O        -1.323610         3.132512        -1.047093
 C        -2.087795         1.886194        -0.980183
 H        -0.245597         0.300113         1.114871
 H        -3.323727        -0.444001        -0.615684
 H        -3.446301        -0.013573         1.149051
 H        -4.322168         2.350527        -0.228794
 H        -2.863726         1.658140         2.060340
 H        -2.637142         4.104325         1.231606
 H        -1.414097         3.571966         2.345786
 H        -0.363826         4.559418         0.023320
 H         0.307243         3.052167         0.592676
 H        -2.064995         1.476760        -2.049902
