19
Iteration:  3327
 O        -0.581712         0.185884         0.515902
 C        -1.745106         0.851437         0.235967
 C        -3.270594         0.330930        -0.122152
 C        -3.381613         1.836559         0.014183
 C        -2.427429         1.753471         1.205760
 C        -1.721216         3.168226         1.401696
 C        -0.862511         3.577606         0.308104
 O        -1.320160         3.195949        -1.002356
 C        -2.061082         1.929194        -0.981238
 H         0.043464         0.181986        -0.205488
 H        -3.347718        -0.093214        -1.119765
 H        -3.864393        -0.126125         0.615177
 H        -4.082707         2.529330        -0.238420
 H        -2.884648         1.368041         2.170323
 H        -2.517744         3.940643         1.574937
 H        -1.073935         2.933846         2.266242
 H        -0.682841         4.671783         0.170417
 H         0.174456         3.137777         0.601355
 H        -2.295959         1.702654        -2.088210
