19
Iteration:  4600
 O        -0.507681         0.206438         0.384562
 C        -1.761926         0.904865         0.099358
 C        -3.176353         0.309368        -0.363518
 C        -3.424649         1.787660        -0.091050
 C        -2.478350         1.786838         1.223884
 C        -1.899568         3.169216         1.458938
 C        -0.783325         3.469739         0.519574
 O        -1.301845         3.229478        -0.868968
 C        -2.055720         2.052584        -0.890919
 H        -0.600859        -0.168049         1.235120
 H        -3.031321        -0.033600        -1.408220
 H        -3.350296        -0.520312         0.344787
 H        -4.476883         2.163138        -0.121555
 H        -2.890594         1.148276         2.000568
 H        -2.649160         3.951792         1.349706
 H        -1.428135         3.264479         2.449320
 H        -0.483722         4.530803         0.495528
 H         0.146251         2.843486         0.586349
 H        -1.918342         1.816804        -1.953814
