19
Iteration:  1031
 O        -0.667882         0.155366         0.548135
 C        -1.781506         0.929033         0.201081
 C        -3.310004         0.297977        -0.051621
 C        -3.297513         1.807288        -0.038033
 C        -2.447559         1.847907         1.159279
 C        -1.549662         3.021137         1.492304
 C        -0.873806         3.664491         0.199648
 O        -1.361098         3.154186        -1.088451
 C        -2.025438         1.910475        -0.967643
 H        -0.267089         0.579069         1.391239
 H        -3.635904        -0.267448        -0.896283
 H        -3.881863         0.204124         0.860834
 H        -4.097902         2.549221        -0.346538
 H        -2.918021         1.477428         2.112650
 H        -2.021446         3.851791         1.933603
 H        -0.844162         2.671512         2.079351
 H        -1.080399         4.681354         0.164002
 H         0.159625         3.605833         0.167499
 H        -2.120547         1.673134        -2.062814
