19
Iteration:  2607
 O        -0.659714         0.182596         0.417830
 C        -1.791120         0.806433         0.163690
 C        -3.154913         0.260042        -0.156144
 C        -3.378824         1.857906        -0.041705
 C        -2.466541         1.927558         1.246825
 C        -1.637852         3.181589         1.541610
 C        -0.858964         3.562315         0.242183
 O        -1.351835         3.181272        -0.976388
 C        -2.064090         1.923404        -0.979957
 H        -0.373224         0.129619         1.380075
 H        -3.195792        -0.138846        -1.199680
 H        -3.579686        -0.436521         0.562317
 H        -4.201277         2.394775        -0.324031
 H        -2.849536         1.414787         2.075716
 H        -2.354303         3.927843         1.866674
 H        -0.947052         2.908866         2.435027
 H        -0.732589         4.694846         0.113758
 H         0.150327         3.237469         0.489290
 H        -2.105066         1.543160        -1.962082
