19
Iteration:  3418charge 0 multiplicity 1
 O        -0.569444         0.222251         0.408153
 C        -1.698355         0.840099         0.189714
 C        -3.219586         0.301733        -0.145230
 C        -3.387509         1.869125        -0.105584
 C        -2.415490         1.840599         1.133292
 C        -1.775793         3.222238         1.493019
 C        -0.763881         3.461093         0.348195
 O        -1.372751         3.174042        -0.928526
 C        -2.106704         1.968147        -0.979192
 H        -0.309860        -0.058117         1.252007
 H        -3.269043        -0.318128        -1.065407
 H        -3.811526        -0.271883         0.658526
 H        -4.309353         2.572605         0.038779
 H        -2.737792         1.292170         2.077173
 H        -2.658477         3.917060         1.464070
 H        -1.387954         3.236838         2.472320
 H        -0.454386         4.527920         0.166770
 H         0.137336         2.943354         0.659392
 H        -2.309117         1.512686        -1.912142
