19
Iteration:   147charge 0 multiplicity 1
 O        -0.621133         0.370643         0.658545
 C        -1.867761         0.877604         0.293559
 C        -3.324277         0.310556        -0.030548
 C        -3.351227         1.872237        -0.137776
 C        -2.534508         1.985765         1.249911
 C        -1.431046         3.052920         1.401274
 C        -0.860563         3.656302         0.115036
 O        -1.327379         3.011996        -1.064340
 C        -2.054708         1.769665        -0.956203
 H        -0.305295        -0.277361        -0.050201
 H        -3.403655        -0.250170        -0.949401
 H        -3.841864        -0.170303         0.777200
 H        -4.406927         2.442795        -0.290340
 H        -3.040868         1.736028         2.126210
 H        -1.769229         3.830261         2.072203
 H        -0.679745         2.536344         1.922125
 H        -1.137514         4.651994         0.100259
 H         0.262201         3.515996         0.264892
 H        -2.010474         1.293339        -1.992580
