19
Iteration:  4786charge 0 multiplicity 1
 O        -0.523322         0.287344         0.400460
 C        -1.733280         0.933192         0.026238
 C        -3.068153         0.332919        -0.369011
 C        -3.440225         1.845115        -0.073980
 C        -2.536112         1.709137         1.165423
 C        -1.976607         3.075887         1.545507
 C        -0.847037         3.443952         0.523268
 O        -1.240446         3.213258        -0.867450
 C        -1.927531         2.103839        -0.893376
 H        -0.718853        -0.669063         0.742416
 H        -3.123317        -0.037040        -1.424005
 H        -3.531653        -0.319978         0.424271
 H        -4.412991         2.328090        -0.200381
 H        -2.950374         1.124134         1.963699
 H        -2.755356         3.840117         1.475529
 H        -1.659301         2.882502         2.571821
 H        -0.646980         4.492239         0.564074
 H        -0.059480         2.889021         0.903852
 H        -2.158162         1.871710        -1.936277
