19
Iteration:   520
 O        -0.705242         0.103033         0.706101
 C        -1.754863         0.867082         0.345243
 C        -3.218569         0.308050        -0.156051
 C        -3.328004         1.795652        -0.114086
 C        -2.413994         1.987500         1.194595
 C        -1.557372         3.262785         1.312720
 C        -0.735071         3.526209         0.149581
 O        -1.571751         3.197199        -0.982625
 C        -2.020529         1.870847        -0.881813
 H        -0.431889        -0.389481        -0.109611
 H        -3.126238        -0.126279        -1.145273
 H        -3.858433        -0.292243         0.536288
 H        -4.234635         2.437209        -0.377363
 H        -2.760897         1.601174         2.184464
 H        -2.286784         4.112032         1.535586
 H        -0.833815         3.222325         2.165836
 H        -0.481354         4.493703        -0.010881
 H         0.118648         2.956088         0.061830
 H        -1.938952         1.493364        -1.898825
