19
Iteration:  3148charge 0 multiplicity 1
 O        -0.675274         0.109868         0.436616
 C        -1.828269         0.908559         0.251661
 C        -3.128354         0.215718        -0.065259
 C        -3.398040         1.779359        -0.041318
 C        -2.523334         1.928606         1.190271
 C        -1.668968         3.159113         1.457875
 C        -0.776673         3.601486         0.239151
 O        -1.366438         3.211595        -1.016815
 C        -2.010430         1.964851        -0.887152
 H         0.054626         0.511149        -0.177153
 H        -3.295654        -0.265967        -0.994402
 H        -3.671251        -0.252294         0.736764
 H        -4.250227         2.478054        -0.421715
 H        -2.803987         1.366787         2.164188
 H        -2.428900         3.819441         1.928603
 H        -0.878595         2.955976         2.289001
 H        -0.751473         4.685558         0.285826
 H         0.141447         3.039509         0.363053
 H        -2.042697         1.552796        -1.927514
