19
Iteration:   133
 O        -0.630538         0.308402         0.711681
 C        -1.811175         0.930188         0.316951
 C        -3.193589         0.398361        -0.010247
 C        -3.407059         1.931791        -0.105114
 C        -2.475341         1.922605         1.120076
 C        -1.488201         2.984132         1.474575
 C        -0.936020         3.607296         0.106986
 O        -1.335221         2.966358        -1.153829
 C        -2.073632         1.889003        -0.893974
 H        -0.585164        -0.475080         0.209850
 H        -3.298642        -0.119025        -1.042440
 H        -3.764864        -0.020633         0.781641
 H        -4.231546         2.600758        -0.460150
 H        -2.927644         1.367683         2.032301
 H        -1.820227         3.782854         2.133369
 H        -0.652256         2.477417         1.987753
 H        -1.213812         4.710653        -0.101195
 H         0.181232         3.696481        -0.082138
 H        -2.212313         1.351894        -1.783357
