19
Iteration:  4794charge 0 multiplicity 1
 O        -0.490444         0.240778         0.357806
 C        -1.701104         0.906774         0.059844
 C        -3.107806         0.351831        -0.411264
 C        -3.462815         1.775783        -0.043142
 C        -2.592450         1.721231         1.136859
 C        -1.943269         3.135893         1.570802
 C        -0.868043         3.440312         0.599044
 O        -1.181279         3.223101        -0.862989
 C        -2.015349         2.121810        -0.949316
 H        -0.716069        -0.431276         1.122366
 H        -3.220048        -0.133199        -1.382959
 H        -3.300674        -0.403133         0.365941
 H        -4.312743         2.385311        -0.358795
 H        -2.920545         1.194424         2.069512
 H        -2.655322         3.970413         1.466953
 H        -1.595574         3.089085         2.617564
 H        -0.823369         4.540041         0.603617
 H         0.098475         2.959970         0.690241
 H        -2.102515         1.698707        -1.965022
