19
Iteration:  2515charge 0 multiplicity 1
 O        -0.560075         0.161125         0.284587
 C        -1.750265         0.814770         0.238176
 C        -3.131527         0.244030        -0.153059
 C        -3.401584         1.782857         0.008476
 C        -2.491750         1.956713         1.300309
 C        -1.837909         3.326459         1.434940
 C        -0.735838         3.507552         0.245685
 O        -1.331392         3.161623        -0.978404
 C        -2.056415         1.986798        -0.829982
 H        -0.769945        -0.690413         0.589098
 H        -3.223552        -0.266176        -1.072412
 H        -3.664740        -0.208771         0.703401
 H        -4.304952         2.499673        -0.353357
 H        -2.898265         1.468858         2.220726
 H        -2.571960         4.188924         1.416989
 H        -1.450742         3.307174         2.457600
 H        -0.372123         4.526750         0.300329
 H         0.088060         2.750750         0.438709
 H        -2.294718         1.561155        -1.834360
