19
Iteration:  2546
 O        -0.601611         0.138377         0.338897
 C        -1.768205         0.904485         0.200405
 C        -3.214670         0.339154        -0.095021
 C        -3.403843         1.823161        -0.040004
 C        -2.316273         1.862528         1.168085
 C        -1.796012         3.200665         1.506789
 C        -0.876469         3.612887         0.290674
 O        -1.278691         3.102691        -0.966630
 C        -2.077907         1.920390        -0.906028
 H        -0.526437        -0.433565         1.181350
 H        -3.286532        -0.266831        -0.989388
 H        -3.786318        -0.053975         0.746212
 H        -4.217283         2.539928        -0.371640
 H        -2.567326         1.360861         2.164174
 H        -2.534827         3.997352         1.572786
 H        -1.317625         3.196839         2.423555
 H        -0.847395         4.676883         0.200685
 H         0.144449         3.217930         0.329914
 H        -2.127810         1.673657        -2.014239
