19
Iteration:   183
 O        -0.682269         0.163666         0.527011
 C        -1.812719         0.909686         0.252383
 C        -3.193189         0.355569         0.058553
 C        -3.421023         1.891763        -0.070939
 C        -2.442158         1.953824         1.219547
 C        -1.668687         3.200019         1.371021
 C        -0.809234         3.595698         0.185658
 O        -1.249233         2.979071        -1.023627
 C        -2.109164         1.826496        -0.993761
 H         0.134007         0.456639         0.035322
 H        -3.363597        -0.331461        -0.734776
 H        -3.679095        -0.015338         1.028596
 H        -4.345963         2.390177        -0.183321
 H        -2.950151         1.691337         2.122264
 H        -2.288945         4.080118         1.690785
 H        -0.927837         3.011561         2.197186
 H        -0.860721         4.657722        -0.023185
 H         0.233669         3.346648         0.281895
 H        -2.172461         1.350932        -2.031935
