19
Iteration:  2472
 O        -0.509392         0.289327         0.391458
 C        -1.782092         0.880460         0.151197
 C        -3.218334         0.225905         0.058121
 C        -3.388719         1.827243        -0.132276
 C        -2.515829         1.906536         1.182499
 C        -1.769188         3.182447         1.424320
 C        -0.729521         3.411110         0.333495
 O        -1.354514         3.240308        -0.955320
 C        -2.112163         1.970413        -0.939620
 H        -0.474072        -0.625415         0.537334
 H        -3.399485        -0.255795        -0.915252
 H        -3.524486        -0.320637         1.029265
 H        -4.403094         2.331791        -0.615569
 H        -2.847941         1.390641         2.100726
 H        -2.357915         4.150588         1.628589
 H        -1.083586         3.088679         2.379212
 H        -0.302650         4.428450         0.234339
 H         0.062973         2.582842         0.412481
 H        -2.252745         1.645516        -1.999550
