19
Iteration:  3904charge 0 multiplicity 1
 O        -0.623385         0.153144         0.513023
 C        -1.848275         0.839803         0.118410
 C        -3.212026         0.309000        -0.150483
 C        -3.410199         1.871955        -0.058185
 C        -2.480245         1.825666         1.199810
 C        -1.614746         3.148299         1.508554
 C        -0.884001         3.751039         0.284751
 O        -1.175088         3.035879        -0.966143
 C        -2.141151         1.886787        -0.951444
 H        -0.114869         0.900955         0.306591
 H        -3.246690        -0.142021        -1.157699
 H        -3.542908        -0.382291         0.572829
 H        -4.350244         2.416454        -0.272120
 H        -2.903155         1.374064         2.142999
 H        -2.445816         3.865074         1.830518
 H        -1.084689         3.091771         2.457037
 H        -0.923613         4.843201         0.021766
 H         0.150153         3.618028         0.602138
 H        -2.268528         1.516026        -1.965050
