19
Iteration:  1620
 O        -0.625939         0.105444         0.295547
 C        -1.824775         0.834765         0.280131
 C        -3.181776         0.327617        -0.014212
 C        -3.362694         1.870423        -0.124471
 C        -2.460635         1.884927         1.201147
 C        -1.668093         3.216457         1.467729
 C        -0.932304         3.712285         0.237441
 O        -1.242128         3.093786        -0.993969
 C        -2.005052         1.857332        -0.825589
 H        -0.621231        -0.523515         0.992406
 H        -3.359887        -0.140676        -0.993981
 H        -3.682884        -0.102091         0.873319
 H        -4.321500         2.500399        -0.318834
 H        -3.092370         1.650875         2.094660
 H        -2.507098         3.962732         1.790586
 H        -1.043594         3.035893         2.254069
 H        -1.068339         4.733212         0.024925
 H         0.150275         3.473425         0.391125
 H        -1.929777         1.499905        -1.901920
