19
Iteration:  4829
 O        -0.555716         0.141053         0.202414
 C        -1.781875         0.875317         0.165487
 C        -3.105869         0.289873        -0.327417
 C        -3.307497         1.825738        -0.285710
 C        -2.595882         1.840219         1.135419
 C        -1.915067         3.114732         1.588323
 C        -0.839280         3.526681         0.607513
 O        -1.365775         3.260066        -0.731363
 C        -1.924979         1.923866        -0.888184
 H        -0.047423         0.556907         1.014385
 H        -3.233829        -0.240954        -1.301580
 H        -3.497279        -0.224567         0.570200
 H        -4.056934         2.579822        -0.500368
 H        -3.124704         1.230450         1.871818
 H        -2.628531         3.945397         1.558159
 H        -1.411863         3.226327         2.551081
 H        -0.720601         4.610953         0.712775
 H         0.138355         3.138454         0.648679
 H        -1.627081         1.725467        -1.906993
