19
Iteration:  1919charge 0 multiplicity 1
 O        -0.486720         0.365812         0.421887
 C        -1.787702         1.014397         0.298857
 C        -3.191815         0.212575        -0.039082
 C        -3.448144         1.861516        -0.143582
 C        -2.582825         1.973771         1.151060
 C        -1.653575         3.103677         1.418088
 C        -0.685568         3.334544         0.244375
 O        -1.457349         3.165271        -0.969442
 C        -2.108520         1.924939        -0.901547
 H        -0.407636        -0.448395         1.002995
 H        -3.208165        -0.389212        -0.937462
 H        -3.452598        -0.205325         0.961273
 H        -4.329606         2.378815        -0.151805
 H        -3.100521         1.676055         2.116344
 H        -2.129412         4.116845         1.640092
 H        -1.119022         2.761187         2.293768
 H        -0.255062         4.313193        -0.004381
 H         0.065858         2.535895         0.106777
 H        -2.061912         1.400744        -1.904237
