19
Iteration:   185
 O        -0.687528         0.150972         0.514290
 C        -1.809630         0.906143         0.250672
 C        -3.176905         0.359728         0.058565
 C        -3.412327         1.898618        -0.051576
 C        -2.428569         1.970549         1.215937
 C        -1.691204         3.210276         1.373486
 C        -0.826739         3.560335         0.186036
 O        -1.245942         2.981836        -1.041357
 C        -2.097205         1.838776        -0.981896
 H         0.100624         0.464211         0.092363
 H        -3.402798        -0.367802        -0.779453
 H        -3.661253        -0.029024         1.014904
 H        -4.280034         2.394859        -0.200434
 H        -2.986614         1.684025         2.188956
 H        -2.319970         4.109206         1.651526
 H        -0.900724         3.054765         2.222789
 H        -0.919925         4.694938        -0.019539
 H         0.189585         3.281772         0.322744
 H        -2.170749         1.373496        -1.970409
