19
Iteration:   909charge 0 multiplicity 1
 O        -0.553966         0.258401         0.467259
 C        -1.816882         0.912828         0.288912
 C        -3.134579         0.325668        -0.050343
 C        -3.422758         1.843096        -0.071474
 C        -2.546867         1.931791         1.244710
 C        -1.707017         3.214241         1.406487
 C        -0.680182         3.389780         0.228401
 O        -1.365853         3.113937        -1.026313
 C        -2.124510         1.951012        -0.879040
 H        -0.364074        -0.379917        -0.283939
 H        -3.307612        -0.215322        -0.963450
 H        -3.597587        -0.236951         0.785089
 H        -4.281684         2.437987        -0.456490
 H        -2.975867         1.585040         2.223831
 H        -2.508418         3.972976         1.437238
 H        -1.204950         3.229558         2.334009
 H        -0.284154         4.360229         0.130742
 H         0.046330         2.618683         0.380768
 H        -2.207108         1.583363        -1.943989
