19
Iteration:  4391
 O        -0.553673         0.242991         0.498893
 C        -1.783183         0.871091         0.149331
 C        -3.156380         0.217703        -0.337074
 C        -3.325191         1.827831         0.003218
 C        -2.467150         1.798811         1.163469
 C        -1.800035         3.168587         1.406448
 C        -0.798548         3.530240         0.378305
 O        -1.333721         3.214134        -0.889077
 C        -2.084708         2.022096        -0.854378
 H        -0.876040        -0.652763         0.378750
 H        -3.250143        -0.166889        -1.400849
 H        -3.580274        -0.502335         0.405228
 H        -4.132914         2.543580        -0.125333
 H        -2.970178         1.225754         2.085550
 H        -2.429310         4.083052         1.251551
 H        -1.420841         3.110420         2.468885
 H        -0.753784         4.654444         0.384979
 H         0.235953         3.170017         0.492686
 H        -2.231981         1.718127        -1.899841
