19
Iteration:  1841charge 0 multiplicity 1
 O        -0.676123        -0.066207         0.271237
 C        -1.787746         0.830417         0.207432
 C        -3.139499         0.335527         0.003106
 C        -3.310619         1.881899        -0.015443
 C        -2.395372         1.905639         1.228009
 C        -1.823089         3.373812         1.478727
 C        -0.898519         3.673815         0.204479
 O        -1.328689         3.146338        -0.997350
 C        -1.979858         1.842191        -0.881516
 H        -0.243460        -0.033832         1.091023
 H        -3.173318        -0.236667        -0.887376
 H        -3.711462        -0.222014         0.728712
 H        -4.200674         2.456622         0.073353
 H        -2.831321         1.521809         2.175356
 H        -2.551170         4.263946         1.475245
 H        -1.199747         3.451689         2.310766
 H        -0.639286         4.678747         0.100365
 H         0.058908         3.125394         0.452244
 H        -2.013332         1.312706        -1.904985
