19
Iteration:  3957
 O        -0.591516         0.107074         0.456106
 C        -1.775586         0.903917         0.165616
 C        -3.212954         0.235834        -0.040700
 C        -3.287524         1.839509        -0.124789
 C        -2.440044         1.920548         1.128218
 C        -1.797055         3.316000         1.490319
 C        -0.850667         3.500143         0.392802
 O        -1.349186         3.175766        -0.935881
 C        -2.032306         1.937230        -0.962967
 H        -0.190750         0.066078        -0.378441
 H        -3.324432        -0.348275        -1.009707
 H        -3.820356        -0.189603         0.732978
 H        -4.257974         2.302854        -0.249782
 H        -2.868963         1.384269         2.053507
 H        -2.602537         4.058061         1.685901
 H        -1.257713         3.087898         2.384627
 H        -0.480153         4.533515         0.044798
 H         0.114177         2.795708         0.593808
 H        -2.101775         1.675723        -2.052450
