19
Iteration:  2076
 O        -0.540138         0.221526         0.483659
 C        -1.772572         0.873157         0.208826
 C        -3.243217         0.297802        -0.139783
 C        -3.449538         1.787739        -0.088268
 C        -2.455238         1.955899         1.235961
 C        -1.591550         3.195659         1.528790
 C        -0.807390         3.604643         0.255241
 O        -1.374825         3.116271        -1.066804
 C        -2.100167         1.888938        -0.951063
 H        -0.630029        -0.349854         1.337172
 H        -3.395374        -0.257332        -1.120539
 H        -3.785309        -0.275710         0.670092
 H        -4.320635         2.414286        -0.391614
 H        -2.699722         1.351842         2.123726
 H        -2.249983         3.933852         1.953770
 H        -0.822028         2.841298         2.307232
 H        -0.876079         4.705974         0.038566
 H         0.213674         3.224218         0.378388
 H        -2.353093         1.493271        -1.865089
