19
Iteration:  3318
 O        -0.605005         0.151409         0.559342
 C        -1.797893         0.849279         0.191430
 C        -3.177565         0.362948        -0.195596
 C        -3.358402         1.846007         0.028656
 C        -2.434357         1.832631         1.226578
 C        -1.730672         3.115171         1.421699
 C        -0.848910         3.584171         0.213599
 O        -1.346759         3.138964        -0.973857
 C        -2.050535         1.973234        -0.923611
 H        -0.021494         0.382924        -0.177782
 H        -3.394877        -0.069390        -1.204859
 H        -3.768895        -0.259669         0.567608
 H        -4.209616         2.460833        -0.131169
 H        -2.798184         1.177216         2.071971
 H        -2.362877         3.960407         1.759428
 H        -1.067981         3.074730         2.255817
 H        -0.859573         4.713549         0.312655
 H         0.182343         3.252565         0.282521
 H        -2.287539         1.622839        -1.945117
