19
Iteration:  2875charge 0 multiplicity 1
 O        -0.545795         0.171869         0.318059
 C        -1.780008         0.839356         0.168859
 C        -3.179262         0.334162        -0.024134
 C        -3.341406         1.825343        -0.063347
 C        -2.506247         1.997678         1.219061
 C        -1.835830         3.247616         1.529694
 C        -0.804648         3.443034         0.305140
 O        -1.370650         3.072788        -0.900614
 C        -2.055105         1.913375        -0.951810
 H         0.184025         0.732602        -0.121496
 H        -3.291327        -0.179322        -0.990187
 H        -3.592233        -0.184915         0.926647
 H        -4.007915         2.575954        -0.344009
 H        -2.949461         1.443195         1.941708
 H        -2.509536         4.116930         1.443068
 H        -1.326546         3.452683         2.439791
 H        -0.391585         4.407863         0.148212
 H         0.101257         2.681855         0.379337
 H        -2.124659         1.552443        -1.994641
