19
Iteration:   140charge 0 multiplicity 1
 O        -0.616110         0.349733         0.681358
 C        -1.858129         0.933979         0.322229
 C        -3.260719         0.378553        -0.014705
 C        -3.352640         1.900736        -0.136866
 C        -2.534022         1.950017         1.188272
 C        -1.462255         2.991623         1.429129
 C        -0.873015         3.651692         0.103939
 O        -1.351187         2.971399        -1.097382
 C        -2.060822         1.822887        -0.934782
 H        -0.467872        -0.375194         0.054718
 H        -3.298674        -0.138294        -0.970554
 H        -3.869789        -0.202135         0.782579
 H        -4.208585         2.459950        -0.292257
 H        -2.988484         1.417011         2.086655
 H        -1.799093         3.837999         2.084744
 H        -0.579114         2.463362         1.938030
 H        -1.192368         4.735765        -0.020014
 H         0.190062         3.569904         0.131823
 H        -2.089270         1.272371        -1.914697
