19
Iteration:  1898charge 0 multiplicity 1
 O        -0.542472         0.422224         0.430673
 C        -1.825830         0.884648         0.231200
 C        -3.225974         0.280843        -0.073761
 C        -3.394209         1.800871        -0.113649
 C        -2.475544         1.963046         1.253711
 C        -1.610928         3.160885         1.476415
 C        -0.745502         3.414419         0.250072
 O        -1.394416         3.140657        -1.002274
 C        -2.144139         1.813515        -0.951534
 H        -0.543952        -0.187671         1.239516
 H        -3.393056        -0.026735        -1.123772
 H        -3.724165        -0.259998         0.783323
 H        -4.268701         2.203681        -0.492487
 H        -2.955084         1.397429         2.107485
 H        -2.148175         4.133054         1.670338
 H        -0.972649         2.970090         2.379480
 H        -0.322333         4.455022         0.227565
 H         0.055215         2.707370         0.135703
 H        -2.268420         1.520118        -1.949781
