19
Iteration:  4430charge 0 multiplicity 1
 O        -0.519530         0.177460         0.264237
 C        -1.704793         0.951127         0.114308
 C        -3.133985         0.273503        -0.128577
 C        -3.284654         1.882463        -0.194734
 C        -2.656088         1.962820         1.161460
 C        -1.851338         3.174684         1.591148
 C        -0.844990         3.473903         0.460402
 O        -1.347835         3.125611        -0.875000
 C        -2.040065         1.900919        -0.973513
 H        -0.119636         0.169848         1.124057
 H        -3.211207        -0.371665        -0.999415
 H        -3.589533        -0.231296         0.721610
 H        -4.266182         2.378014        -0.350138
 H        -3.071204         1.567664         2.034093
 H        -2.535016         3.990383         1.922046
 H        -1.191101         2.889019         2.398671
 H        -0.540179         4.532661         0.498310
 H         0.103877         2.931500         0.764380
 H        -2.107116         1.591266        -2.014620
