19
Iteration:  1778charge 0 multiplicity 1
 O        -0.644428         0.167750         0.513695
 C        -1.712060         0.950648         0.195142
 C        -3.256961         0.291175        -0.109752
 C        -3.402770         1.864648        -0.032876
 C        -2.448613         1.887963         1.201691
 C        -1.670115         3.249200         1.438163
 C        -0.806178         3.489365         0.247899
 O        -1.336636         3.102828        -1.004747
 C        -2.119296         1.903945        -0.923356
 H         0.110556         0.321262        -0.074501
 H        -3.160506        -0.319605        -1.061884
 H        -3.638602        -0.364954         0.764754
 H        -4.284419         2.426971         0.076147
 H        -2.760666         1.283063         2.087971
 H        -2.400843         4.023568         1.542030
 H        -1.079940         3.198853         2.420572
 H        -0.732838         4.613168         0.022116
 H         0.196214         3.074870         0.451328
 H        -2.162121         1.497146        -1.867899
