19
Iteration:  3635charge 0 multiplicity 1
 O        -0.524690         0.204691         0.404832
 C        -1.765188         0.880751         0.290661
 C        -3.242658         0.281646        -0.161428
 C        -3.357237         1.856986        -0.154922
 C        -2.490971         1.881538         1.123957
 C        -1.744900         3.165242         1.510641
 C        -0.755347         3.601082         0.350010
 O        -1.400375         3.205711        -0.932778
 C        -2.056930         1.868988        -0.928061
 H        -0.802808        -0.706012         0.805033
 H        -3.382546        -0.368509        -1.081453
 H        -3.781191        -0.295019         0.678511
 H        -4.315858         2.404204        -0.461877
 H        -3.035022         1.435613         1.960863
 H        -2.412754         3.981358         1.959750
 H        -0.942082         2.953590         2.271812
 H        -0.654257         4.715926         0.167661
 H         0.231898         3.152401         0.452064
 H        -1.740370         1.461414        -1.972276
