19
Iteration:  4762charge 0 multiplicity 1
 O        -0.517434         0.247051         0.408099
 C        -1.769556         0.838749         0.177358
 C        -3.142862         0.253355        -0.361982
 C        -3.332918         1.784284        -0.258846
 C        -2.532663         1.791925         1.176138
 C        -1.849798         3.162139         1.608069
 C        -0.845864         3.445766         0.578240
 O        -1.339538         3.299301        -0.818455
 C        -2.014591         2.070209        -0.973558
 H        -0.342083        -0.418615        -0.213915
 H        -3.093050        -0.186221        -1.376007
 H        -3.691208        -0.338164         0.409754
 H        -4.186751         2.412194        -0.567314
 H        -3.184202         1.347656         1.952632
 H        -2.535791         4.018381         1.562829
 H        -1.483188         2.965880         2.621077
 H        -0.635160         4.508595         0.673328
 H        -0.014668         2.900879         0.859606
 H        -1.855777         1.628134        -1.990382
