19
Iteration:    88
 O        -0.713951        -0.081139         0.619673
 C        -1.836178         0.787946         0.245950
 C        -3.303150         0.345992        -0.002589
 C        -3.349688         1.898627        -0.117703
 C        -2.311762         2.002062         1.202627
 C        -1.499867         3.227619         1.328793
 C        -1.071350         3.933366         0.084261
 O        -1.215354         3.034806        -1.021149
 C        -2.020646         1.793226        -0.813034
 H        -0.486787        -0.740659        -0.024362
 H        -3.421011        -0.361081        -0.878675
 H        -3.679604        -0.093117         0.929615
 H        -4.186703         2.466477        -0.361453
 H        -2.757061         1.712033         2.227362
 H        -2.155714         3.924414         1.884159
 H        -0.608640         3.085764         1.992975
 H        -1.638184         4.916767        -0.216777
 H        -0.035233         4.333230         0.183445
 H        -2.044092         1.347778        -1.741689
