19
Iteration:   782charge 0 multiplicity 1
 O        -0.710467        -0.016496         0.372766
 C        -1.796925         0.894280         0.214801
 C        -3.229597         0.286751         0.013175
 C        -3.346913         1.866605         0.013327
 C        -2.364453         1.931646         1.325419
 C        -1.851268         3.381504         1.357606
 C        -0.825259         3.636390         0.228051
 O        -1.207034         3.028431        -0.982967
 C        -2.009404         1.895789        -0.955582
 H        -0.148479         0.099100        -0.445033
 H        -3.321216        -0.300086        -0.893817
 H        -3.569635        -0.155016         0.955228
 H        -4.280292         2.423493        -0.078231
 H        -2.688856         1.453413         2.228958
 H        -2.651123         4.040726         1.233329
 H        -1.488615         3.668108         2.375588
 H        -0.672066         4.676970         0.130158
 H         0.205539         3.313811         0.517250
 H        -2.214137         1.588595        -1.915033
