19
Iteration:  2686charge 0 multiplicity 1
 O        -0.511055         0.235060         0.301388
 C        -1.729947         0.875572         0.138666
 C        -3.142871         0.217277        -0.050695
 C        -3.401883         1.828777        -0.072005
 C        -2.540229         2.029944         1.206942
 C        -1.766959         3.303975         1.435537
 C        -0.775331         3.449372         0.390403
 O        -1.327263         3.054942        -0.915408
 C        -2.126266         1.971953        -0.895382
 H        -0.593023        -0.741762         0.282077
 H        -3.196692        -0.399123        -1.044995
 H        -3.745107        -0.404839         0.663040
 H        -4.368550         2.388432        -0.294783
 H        -3.027948         1.608262         2.063411
 H        -2.336800         4.244332         1.513354
 H        -1.329486         3.273814         2.513783
 H        -0.567703         4.526302         0.346827
 H         0.013893         2.751132         0.636710
 H        -2.223369         1.723709        -1.994055
