19
Iteration:  4931
 O        -0.541610         0.295205         0.337517
 C        -1.678154         1.036795         0.124809
 C        -3.053013         0.335944        -0.275292
 C        -3.376747         1.857830        -0.282161
 C        -2.586292         1.811710         1.090456
 C        -1.940442         2.983343         1.606608
 C        -0.897378         3.441892         0.643959
 O        -1.322146         3.234961        -0.771868
 C        -1.951857         1.973773        -0.989080
 H        -0.670952        -0.598886         0.162413
 H        -3.239468        -0.293802        -1.242802
 H        -3.436207        -0.317306         0.618008
 H        -4.368376         2.257425        -0.601344
 H        -3.193744         1.199028         1.790204
 H        -2.648559         3.777059         1.920557
 H        -1.327884         2.764979         2.572087
 H        -0.564190         4.558877         0.609948
 H        -0.022040         2.875229         0.866766
 H        -1.494831         1.742688        -2.072062
