19
Iteration:  4644charge 0 multiplicity 1
 O        -0.529789         0.101412         0.299788
 C        -1.739035         0.915161         0.170192
 C        -3.052120         0.295944        -0.116997
 C        -3.444767         1.821476        -0.247337
 C        -2.617412         1.906382         1.124271
 C        -1.902128         3.131049         1.584287
 C        -0.933078         3.460878         0.516788
 O        -1.251879         3.270450        -0.766270
 C        -1.923304         1.977502        -0.978468
 H         0.006310         0.256751        -0.502454
 H        -3.189092        -0.093258        -1.144331
 H        -3.637582        -0.279634         0.656377
 H        -4.305422         2.441523        -0.606626
 H        -3.185033         1.421113         1.913051
 H        -2.681998         3.884801         1.664446
 H        -1.353255         2.950198         2.515082
 H        -0.622673         4.519406         0.382777
 H         0.109452         2.965953         0.676102
 H        -1.885187         1.611612        -2.010686
