19
Iteration:  3151charge 0 multiplicity 1
 O        -0.651504         0.117092         0.413540
 C        -1.828194         0.906259         0.260031
 C        -3.140292         0.220373        -0.046742
 C        -3.408450         1.821906        -0.076900
 C        -2.492117         1.907803         1.201627
 C        -1.698959         3.188705         1.475677
 C        -0.773594         3.572590         0.245248
 O        -1.385105         3.195299        -1.014622
 C        -2.015240         1.965190        -0.903219
 H         0.063165         0.472225        -0.073989
 H        -3.236372        -0.405199        -1.037666
 H        -3.681369        -0.246909         0.797723
 H        -4.224552         2.481019        -0.517053
 H        -2.827116         1.410629         2.212386
 H        -2.308952         3.904766         2.026403
 H        -0.948917         2.914982         2.229043
 H        -0.712108         4.644168         0.387639
 H         0.176572         3.070451         0.393584
 H        -2.036641         1.489370        -1.964964
