19
Iteration:  1877charge 0 multiplicity 1
 O        -0.545862         0.236871         0.428964
 C        -1.809099         0.850388         0.181270
 C        -3.235366         0.293612        -0.051958
 C        -3.459520         1.848805         0.000849
 C        -2.408231         1.867782         1.165042
 C        -1.697943         3.215769         1.394180
 C        -0.758936         3.529574         0.237755
 O        -1.345115         3.099929        -0.994510
 C        -2.085990         1.932037        -0.930525
 H        -0.713076         0.058469         1.318573
 H        -3.322249        -0.248129        -1.051435
 H        -3.726373        -0.131823         0.899113
 H        -4.294833         2.520451         0.070357
 H        -2.894302         1.247055         1.981761
 H        -2.471569         3.989885         1.619303
 H        -1.080118         3.130955         2.378670
 H        -0.586685         4.670414         0.178578
 H         0.243061         3.067449         0.285131
 H        -2.031171         1.577877        -1.895054
