19
Iteration:  4573
 O        -0.580470         0.257309         0.497062
 C        -1.782328         0.884301         0.130122
 C        -3.110070         0.267309        -0.284189
 C        -3.318301         1.877389        -0.135888
 C        -2.487475         1.769847         1.207383
 C        -1.864812         3.066749         1.550636
 C        -0.866835         3.498513         0.421392
 O        -1.302471         3.250934        -0.903194
 C        -2.051330         2.053878        -0.936298
 H        -0.431221        -0.528168        -0.003293
 H        -3.022036        -0.084378        -1.331706
 H        -3.526551        -0.499398         0.375134
 H        -4.266160         2.375330        -0.267964
 H        -3.024971         1.147644         1.920903
 H        -2.652636         3.843836         1.741402
 H        -1.179921         3.010089         2.410529
 H        -0.623806         4.578835         0.442407
 H         0.102384         2.971719         0.520780
 H        -2.069373         1.775401        -2.035836
