19
Iteration:  1791
 O        -0.685263         0.036933         0.448335
 C        -1.796751         0.893342         0.199733
 C        -3.179716         0.310678        -0.013187
 C        -3.384973         1.760808        -0.006271
 C        -2.366561         1.904874         1.214074
 C        -1.786264         3.236717         1.405697
 C        -0.815804         3.618662         0.261237
 O        -1.288849         3.130431        -1.046992
 C        -2.065616         1.970210        -0.917852
 H         0.134841         0.510055         0.184911
 H        -3.567113        -0.138668        -0.976301
 H        -3.618300        -0.202689         0.887245
 H        -4.276170         2.328086        -0.389948
 H        -2.759716         1.566803         2.180502
 H        -2.495296         3.979444         1.596912
 H        -1.083057         3.181826         2.333425
 H        -0.556498         4.756347         0.287919
 H         0.150956         3.085914         0.380131
 H        -2.195150         1.630278        -1.923729
