19
Iteration:  3164
 O        -0.591495         0.121185         0.380252
 C        -1.735119         0.888356         0.208117
 C        -3.194244         0.334187        -0.017812
 C        -3.356669         1.875077        -0.207605
 C        -2.466440         1.935189         1.227106
 C        -1.680715         3.192867         1.540472
 C        -0.847269         3.511476         0.332329
 O        -1.408513         3.160638        -0.958420
 C        -2.114627         1.861840        -0.942417
 H         0.160913         0.750960         0.090973
 H        -3.189111        -0.397896        -0.941100
 H        -3.603144        -0.181303         0.895283
 H        -4.314148         2.314933        -0.261369
 H        -3.094301         1.519510         2.036075
 H        -2.259884         4.130263         1.701177
 H        -1.059952         2.964205         2.367802
 H        -0.545301         4.532536         0.014434
 H         0.117165         2.937971         0.356131
 H        -2.073860         1.456909        -1.984931
