19
Iteration:  2670charge 0 multiplicity 1
 O        -0.532377         0.218977         0.284930
 C        -1.782137         0.964078         0.252365
 C        -3.070045         0.324679        -0.084471
 C        -3.459511         1.799621        -0.103602
 C        -2.551748         1.945829         1.179629
 C        -1.797545         3.297167         1.517193
 C        -0.719494         3.418556         0.320820
 O        -1.365236         3.130720        -0.909386
 C        -2.095179         1.896920        -0.915638
 H        -0.887239        -0.732325         0.493702
 H        -3.137237        -0.141498        -1.009170
 H        -3.394390        -0.256313         0.759731
 H        -4.436656         2.140293        -0.365036
 H        -2.838313         1.495932         2.184510
 H        -2.548558         4.091766         1.583955
 H        -1.237781         3.215866         2.387460
 H        -0.172945         4.358561         0.059344
 H         0.146014         2.725478         0.518935
 H        -2.019721         1.482647        -1.915287
