19
Iteration:  4472charge 0 multiplicity 1
 O        -0.588351         0.185587         0.464420
 C        -1.765587         0.873632         0.158781
 C        -3.149990         0.278245        -0.253086
 C        -3.381929         1.788728        -0.112236
 C        -2.443711         1.782447         1.220760
 C        -1.876578         3.197829         1.445991
 C        -0.772109         3.519378         0.490285
 O        -1.324230         3.241725        -0.878058
 C        -2.027133         1.999258        -0.961337
 H        -0.213430         0.202717        -0.429066
 H        -3.273119        -0.183924        -1.224500
 H        -3.706460        -0.337261         0.481909
 H        -4.295714         2.430975        -0.274271
 H        -2.923608         1.225775         2.084465
 H        -2.733317         3.920448         1.387899
 H        -1.521662         3.233108         2.513864
 H        -0.388822         4.542529         0.394635
 H         0.110147         2.840183         0.596957
 H        -2.041827         1.744457        -2.069366
