19
Iteration:  4456charge 0 multiplicity 1
 O        -0.565506         0.144757         0.282568
 C        -1.776977         0.930507         0.199648
 C        -3.193681         0.229703        -0.161242
 C        -3.384000         1.771878        -0.235002
 C        -2.582582         1.907805         1.134119
 C        -1.814405         3.219054         1.543349
 C        -0.790803         3.468815         0.460723
 O        -1.319169         3.241590        -0.852908
 C        -2.000249         1.947593        -0.864144
 H         0.189414         0.678653         0.167166
 H        -3.144537        -0.391979        -1.094555
 H        -3.633662        -0.379069         0.660050
 H        -4.341901         2.222891        -0.384403
 H        -2.970726         1.519687         2.074899
 H        -2.515054         4.046832         1.539162
 H        -1.305190         3.126582         2.521064
 H        -0.532909         4.525934         0.597801
 H         0.148000         2.962135         0.671977
 H        -1.826822         1.530554        -1.855347
