19
Iteration:  2741
 O        -0.584108         0.153804         0.439793
 C        -1.732188         0.783701         0.161075
 C        -3.130497         0.291504        -0.119242
 C        -3.375926         1.878117        -0.012627
 C        -2.479199         1.910051         1.181044
 C        -1.761153         3.248139         1.572507
 C        -0.799188         3.611091         0.270734
 O        -1.381420         3.130636        -1.011074
 C        -2.068852         1.951124        -0.932076
 H        -0.635906        -0.874858         0.472660
 H        -3.257554         0.016567        -1.225867
 H        -3.688218        -0.339461         0.628829
 H        -4.461523         2.235173        -0.187875
 H        -2.967492         1.413915         1.982912
 H        -2.490749         4.030499         1.641887
 H        -1.141381         3.105642         2.533563
 H        -0.371328         4.624755         0.161122
 H         0.141372         3.050916         0.428427
 H        -2.109100         1.832872        -2.046778
