19
Iteration:  1807
 O        -0.683134        -0.096755         0.335036
 C        -1.749848         0.779275         0.218672
 C        -3.185439         0.248090         0.050573
 C        -3.316093         1.926136        -0.037545
 C        -2.470537         1.910661         1.209103
 C        -1.760399         3.327240         1.429526
 C        -0.835417         3.670096         0.237048
 O        -1.300275         3.195008        -0.998748
 C        -2.038785         1.910331        -0.940428
 H         0.028868         0.437685         0.601666
 H        -3.185665        -0.363319        -0.811267
 H        -3.576989        -0.143230         0.956260
 H        -4.291330         2.423406         0.049415
 H        -2.894078         1.446028         2.118138
 H        -2.635163         4.135999         1.427783
 H        -1.324145         3.443503         2.362045
 H        -0.719433         4.693481         0.094481
 H         0.178211         3.323762         0.552950
 H        -2.164941         1.485134        -2.037970
