19
Iteration:  4819
 O        -0.604684         0.229124         0.220391
 C        -1.794817         0.799598         0.152337
 C        -3.109250         0.257281        -0.350936
 C        -3.329640         1.823659        -0.214648
 C        -2.519544         1.751506         1.092127
 C        -1.915414         3.190588         1.569317
 C        -0.838313         3.548651         0.584667
 O        -1.300781         3.229005        -0.724008
 C        -1.935796         2.042204        -0.867923
 H        -0.147739         0.309906         1.115408
 H        -2.956217        -0.343541        -1.283069
 H        -3.745706        -0.331176         0.346390
 H        -4.234046         2.340160        -0.523502
 H        -2.985581         1.381993         1.977981
 H        -2.725111         3.916558         1.652514
 H        -1.609213         2.946072         2.584221
 H        -0.564534         4.573414         0.440496
 H         0.043043         2.996829         0.746756
 H        -1.868948         1.649801        -1.877825
