19
Iteration:  2189
 O        -0.539135         0.183459         0.248515
 C        -1.727908         0.766303         0.154148
 C        -3.229055         0.302236        -0.002011
 C        -3.347200         1.828896        -0.077944
 C        -2.472398         1.951628         1.234375
 C        -1.801850         3.313537         1.477176
 C        -0.837520         3.635630         0.303410
 O        -1.256079         3.016346        -0.960417
 C        -2.096212         1.893401        -0.875955
 H        -0.583377        -0.388566         0.990451
 H        -3.616582        -0.027371        -1.010257
 H        -3.690300        -0.075440         0.975715
 H        -4.339392         2.309375        -0.405553
 H        -2.967632         1.603840         2.189820
 H        -2.528805         4.145705         1.587453
 H        -1.161911         3.290384         2.437793
 H        -0.737233         4.698990         0.176051
 H         0.182632         3.090709         0.479992
 H        -2.274899         1.578463        -1.894163
