19
Iteration:  4192charge 0 multiplicity 1
 O        -0.598814         0.260072         0.581295
 C        -1.782438         0.861207         0.157855
 C        -3.208506         0.379286        -0.239933
 C        -3.373321         1.866657        -0.094930
 C        -2.342688         1.809792         1.134865
 C        -1.743942         3.201767         1.464510
 C        -0.775272         3.518709         0.358395
 O        -1.393504         3.102497        -0.942835
 C        -2.111868         1.946069        -0.900683
 H        -0.046610        -0.146025        -0.223697
 H        -3.188164        -0.228985        -1.142137
 H        -3.722108        -0.184221         0.581018
 H        -4.390372         2.195512        -0.234908
 H        -2.761867         1.138912         1.970051
 H        -2.589464         3.872785         1.424911
 H        -1.415906         3.243545         2.494589
 H        -0.647336         4.580188         0.485487
 H         0.088608         2.900003         0.453363
 H        -1.990266         1.559424        -1.873337
