19
Iteration:  2001
 O        -0.623544         0.022808         0.242237
 C        -1.740080         0.878203         0.225067
 C        -3.220050         0.293223         0.062655
 C        -3.342197         1.863762        -0.036896
 C        -2.357361         1.953865         1.220598
 C        -1.810177         3.307142         1.422692
 C        -0.929706         3.743981         0.294601
 O        -1.246524         3.060731        -0.998472
 C        -2.040319         1.845719        -0.872346
 H        -0.771369        -0.636445         0.858391
 H        -3.195820        -0.254738        -0.919886
 H        -3.796508        -0.392354         0.688021
 H        -4.156373         2.528247        -0.490087
 H        -2.799656         1.430482         2.061064
 H        -2.529762         4.054997         1.633082
 H        -1.239803         3.287768         2.443562
 H        -0.852226         4.778920         0.062986
 H         0.112214         3.538750         0.458516
 H        -2.160991         1.421129        -1.794048
