19
Iteration:  2847charge 0 multiplicity 1
 O        -0.560304         0.280299         0.383106
 C        -1.838535         0.853278         0.236600
 C        -3.192090         0.278513        -0.051029
 C        -3.433381         1.727310        -0.056345
 C        -2.481210         1.927677         1.164125
 C        -1.793092         3.216273         1.429297
 C        -0.697817         3.470414         0.367588
 O        -1.272979         3.144962        -0.960962
 C        -2.102101         1.966278        -0.921523
 H        -0.190819         0.201619        -0.575234
 H        -3.273978        -0.326713        -0.965240
 H        -3.702268        -0.148084         0.774738
 H        -4.421898         2.263808        -0.094580
 H        -2.918835         1.357715         2.096507
 H        -2.474408         4.125068         1.484028
 H        -1.323192         3.221142         2.443655
 H        -0.422705         4.579876         0.269256
 H         0.073849         2.743075         0.469355
 H        -2.148145         1.631368        -1.972866
