19
Iteration:  4675charge 0 multiplicity 1
 O        -0.565223         0.235985         0.427827
 C        -1.790652         0.861692         0.125651
 C        -3.126257         0.315723        -0.379599
 C        -3.374729         1.828231        -0.152790
 C        -2.452776         1.703881         1.189510
 C        -1.851251         3.101391         1.561667
 C        -0.852409         3.617342         0.498691
 O        -1.283825         3.229023        -0.818852
 C        -2.011927         1.990625        -0.924400
 H        -0.638067        -0.747671         0.491973
 H        -3.157492         0.059906        -1.470551
 H        -3.710108        -0.360251         0.301884
 H        -4.279070         2.458336        -0.337921
 H        -2.943750         1.138701         1.977122
 H        -2.715233         3.794566         1.448632
 H        -1.507991         3.208442         2.612236
 H        -0.855065         4.704362         0.268181
 H         0.222902         3.211438         0.681194
 H        -1.900435         1.798643        -2.029936
