19
Iteration:  1741charge 0 multiplicity 1
 O        -0.494775         0.416750         0.516809
 C        -1.810141         0.974605         0.252856
 C        -3.308608         0.243342        -0.058932
 C        -3.502929         1.810392        -0.088239
 C        -2.547625         1.891043         1.173025
 C        -1.660599         3.124133         1.454440
 C        -0.677506         3.369873         0.231086
 O        -1.405574         3.178619        -0.980277
 C        -2.001097         1.905505        -0.971916
 H        -0.331915        -0.451954        -0.003304
 H        -3.375967        -0.422162        -0.900871
 H        -3.752233        -0.129945         0.833353
 H        -4.436729         2.420056        -0.149218
 H        -2.954477         1.344841         2.036536
 H        -2.195623         4.132941         1.742855
 H        -0.946288         2.998147         2.182616
 H        -0.277244         4.295878         0.368669
 H         0.166965         2.670932         0.173075
 H        -1.988497         1.530031        -2.067897
