19
Iteration:  2761charge 0 multiplicity 1
 O        -0.614188         0.098149         0.436576
 C        -1.775323         0.963133         0.274313
 C        -3.149642         0.229983        -0.147732
 C        -3.374495         1.762057        -0.152119
 C        -2.439182         1.931652         1.237506
 C        -1.672541         3.250497         1.460707
 C        -0.822653         3.562802         0.296136
 O        -1.426491         3.246513        -0.956232
 C        -2.052593         1.904895        -0.937174
 H        -1.017343        -0.775551         0.386748
 H        -3.250557        -0.301152        -1.134512
 H        -3.500480        -0.253162         0.749240
 H        -4.308785         2.337892        -0.432989
 H        -2.929048         1.425103         2.115207
 H        -2.279528         4.064411         1.794090
 H        -0.913021         2.970028         2.261280
 H        -0.589160         4.712921         0.397622
 H         0.229353         3.159418         0.493763
 H        -1.952220         1.618891        -1.991267
