19
Iteration:  1597charge 0 multiplicity 1
 O        -0.521036         0.194107         0.399387
 C        -1.824378         0.850890         0.239829
 C        -3.362850         0.318800        -0.179577
 C        -3.317458         1.867261        -0.054780
 C        -2.451884         1.925665         1.275390
 C        -1.642368         3.188425         1.552864
 C        -0.883762         3.670607         0.216685
 O        -1.314119         3.021376        -1.013582
 C        -2.047908         1.821311        -0.931636
 H        -0.492471        -0.066318         1.375808
 H        -3.372630         0.053758        -1.240318
 H        -3.864722        -0.319326         0.530205
 H        -4.096607         2.710974        -0.197626
 H        -2.937290         1.488844         2.192480
 H        -2.345450         4.069201         1.939848
 H        -0.991064         2.920583         2.290343
 H        -1.085692         4.703276         0.094568
 H         0.194975         3.444370         0.129414
 H        -1.872531         1.551861        -2.013217
