19
Iteration:  2116
 O        -0.534938         0.230367         0.405314
 C        -1.756615         0.921051         0.254628
 C        -3.149765         0.309406        -0.067010
 C        -3.387783         1.808476        -0.134224
 C        -2.466076         1.920152         1.181898
 C        -1.694744         3.263413         1.477207
 C        -0.720351         3.370554         0.271981
 O        -1.501887         3.217638        -0.962603
 C        -2.114895         1.881731        -0.921339
 H        -0.680313        -0.396998         1.085251
 H        -3.345084        -0.373515        -0.896173
 H        -3.699866        -0.113264         0.780120
 H        -4.298215         2.202355        -0.575379
 H        -2.813452         1.621297         2.199207
 H        -2.290904         4.268100         1.531041
 H        -1.223302         3.253994         2.441761
 H        -0.265541         4.407804         0.316408
 H         0.084973         2.623307         0.066678
 H        -1.994980         1.377227        -2.087738
