19
Iteration:  3664charge 0 multiplicity 1
 O        -0.652696         0.030089         0.517237
 C        -1.658426         0.903874         0.177316
 C        -3.198373         0.281533        -0.087209
 C        -3.299452         1.867718        -0.098706
 C        -2.427875         1.892415         1.148332
 C        -1.787937         3.196886         1.507614
 C        -0.920287         3.583555         0.301869
 O        -1.390746         3.247800        -0.935976
 C        -1.967789         1.953420        -1.009605
 H        -0.917705        -0.749967         0.005033
 H        -3.392628        -0.341461        -1.018077
 H        -3.382159        -0.134012         0.866529
 H        -4.158444         2.403265        -0.375946
 H        -2.842514         1.273443         1.972918
 H        -2.450206         3.946926         1.801210
 H        -0.929870         3.149731         2.194769
 H        -0.947345         4.700790         0.297371
 H         0.124133         3.244352         0.445742
 H        -1.883445         1.639295        -2.055653
