19
Iteration:  4610
 O        -0.555135         0.202881         0.290766
 C        -1.785206         0.848241         0.123154
 C        -3.139968         0.204202        -0.265291
 C        -3.402235         1.778007        -0.144941
 C        -2.484307         1.806855         1.179270
 C        -1.908326         3.245564         1.528963
 C        -0.793801         3.458959         0.455464
 O        -1.294820         3.275767        -0.789519
 C        -1.976285         2.015194        -0.932956
 H        -0.392765         0.369674         1.182650
 H        -3.185082        -0.021746        -1.368229
 H        -3.668270        -0.607758         0.303959
 H        -4.305030         2.415207        -0.304360
 H        -2.942581         1.409355         2.067696
 H        -2.768212         3.931198         1.538495
 H        -1.429480         3.383382         2.512498
 H        -0.396483         4.461613         0.670933
 H        -0.028066         2.668137         0.772571
 H        -1.994923         1.778063        -2.020498
