19
Iteration:  4380charge 0 multiplicity 1
 O        -0.558959         0.151032         0.525413
 C        -1.752897         0.885190         0.161236
 C        -3.064928         0.293190        -0.281909
 C        -3.459657         1.813417        -0.069552
 C        -2.445748         1.847953         1.175037
 C        -1.805933         3.176358         1.498057
 C        -0.792945         3.524026         0.359417
 O        -1.353818         3.183843        -0.909634
 C        -2.099212         2.043113        -0.922442
 H        -0.394382        -0.750632         0.040162
 H        -3.130820         0.097437        -1.393897
 H        -3.594158        -0.474453         0.318889
 H        -4.355896         2.428108        -0.226594
 H        -2.848545         1.438860         2.209659
 H        -2.713198         3.878413         1.517696
 H        -1.256030         3.344276         2.469397
 H        -0.623926         4.630043         0.385703
 H         0.179435         3.003416         0.491808
 H        -2.196101         1.778126        -1.991280
