19
Iteration:   901
 O        -0.568122         0.343252         0.520160
 C        -1.737863         0.911955         0.190066
 C        -3.197908         0.314901        -0.056735
 C        -3.407247         1.904374        -0.081892
 C        -2.543613         1.946491         1.217992
 C        -1.679487         3.143621         1.444871
 C        -0.735262         3.339206         0.211403
 O        -1.382227         3.127164        -1.009864
 C        -2.099993         1.912542        -0.897945
 H        -0.438643        -0.394447        -0.114608
 H        -3.438249        -0.306101        -0.925620
 H        -3.410939        -0.272057         0.841202
 H        -4.387970         2.395044        -0.181205
 H        -3.009187         1.548376         2.099099
 H        -2.287856         4.069004         1.377580
 H        -1.155176         3.269643         2.489584
 H        -0.325407         4.341421         0.157351
 H         0.068077         2.514778         0.354678
 H        -2.189575         1.369069        -1.888098
