19
Iteration:  3082charge 0 multiplicity 1
 O        -0.537043         0.135793         0.378337
 C        -1.764093         0.932209         0.232049
 C        -3.179515         0.264091        -0.007945
 C        -3.391029         1.858497        -0.115015
 C        -2.507951         1.866568         1.206781
 C        -1.726618         3.156294         1.467906
 C        -0.810170         3.566877         0.263762
 O        -1.373682         3.210354        -0.987125
 C        -2.033997         1.943973        -0.897785
 H        -0.872033        -0.693877         0.090301
 H        -3.374746        -0.336955        -0.868566
 H        -3.699562        -0.106526         0.883215
 H        -4.247171         2.518483        -0.396674
 H        -2.684803         1.316890         2.196391
 H        -2.347342         4.012098         1.429846
 H        -1.321089         3.211107         2.516903
 H        -0.630042         4.629446         0.257234
 H         0.169016         3.104448         0.435921
 H        -2.053139         1.476855        -1.898020
