19
Iteration:  1630
 O        -0.641068         0.064461         0.308028
 C        -1.773264         0.861541         0.188879
 C        -3.213591         0.276920         0.033349
 C        -3.324424         1.855067        -0.056870
 C        -2.492838         1.978148         1.211278
 C        -1.761954         3.189754         1.450356
 C        -0.888656         3.730861         0.221580
 O        -1.245072         3.065925        -0.941657
 C        -1.982769         1.933072        -0.940583
 H        -0.886094        -0.590724         0.925020
 H        -3.426558        -0.395313        -0.805057
 H        -3.459749        -0.264735         0.938053
 H        -4.246050         2.541400        -0.256516
 H        -2.910127         1.427804         2.081801
 H        -2.474379         4.084458         1.833392
 H        -1.080343         3.105525         2.223476
 H        -0.991831         4.784792         0.208806
 H         0.207223         3.609364         0.384692
 H        -1.895791         1.431883        -1.995153
