19
Iteration:  3298charge 0 multiplicity 1
 O        -0.701739         0.098959         0.492410
 C        -1.762115         0.910302         0.252112
 C        -3.114952         0.259522        -0.188633
 C        -3.447467         1.829346        -0.049372
 C        -2.430997         1.842050         1.222273
 C        -1.557661         3.210200         1.561692
 C        -0.849126         3.655586         0.297498
 O        -1.372739         3.150464        -1.053136
 C        -2.114826         1.931036        -0.964879
 H         0.239355         0.300938         0.136767
 H        -3.121888        -0.192427        -1.233137
 H        -3.698113        -0.484692         0.525049
 H        -4.323944         2.452530        -0.363165
 H        -3.031136         1.508305         2.077872
 H        -2.279656         3.994066         1.875095
 H        -1.002834         2.919127         2.401942
 H        -0.763740         4.757559         0.131850
 H         0.128090         3.333856         0.475573
 H        -2.231055         1.487799        -1.917051
