19
Iteration:  3642
 O        -0.561871         0.168623         0.429898
 C        -1.744684         0.815326         0.229785
 C        -3.214421         0.295477        -0.094075
 C        -3.308968         1.871192        -0.209257
 C        -2.459173         1.912424         1.130928
 C        -1.741495         3.161750         1.571343
 C        -0.778212         3.654815         0.355559
 O        -1.445461         3.186700        -0.956305
 C        -2.054780         1.888796        -0.963731
 H        -0.738541        -0.785327         0.621886
 H        -3.232285        -0.218084        -1.112597
 H        -3.787577        -0.025903         0.755088
 H        -4.193795         2.360542        -0.467706
 H        -3.083893         1.472700         1.945662
 H        -2.460148         3.849441         1.868667
 H        -1.033535         2.978713         2.427978
 H        -0.636338         4.752883         0.378518
 H         0.174394         3.117285         0.384100
 H        -1.866013         1.349751        -1.923129
