19
Iteration:  1320charge 0 multiplicity 1
 O        -0.570370         0.343470         0.253282
 C        -1.881876         1.020997         0.309650
 C        -3.200665         0.254271        -0.023134
 C        -3.592862         1.732758         0.001831
 C        -2.494839         1.975212         1.227929
 C        -1.736681         3.258400         1.427030
 C        -0.640507         3.495935         0.325592
 O        -1.185414         2.974116        -1.003522
 C        -2.058016         1.894329        -0.891672
 H        -0.698831        -0.587510         0.286147
 H        -3.291430        -0.186682        -1.016840
 H        -3.542714        -0.344864         0.842787
 H        -4.546669         2.107649        -0.448599
 H        -3.005506         1.589310         2.164451
 H        -2.369923         4.234336         1.348085
 H        -1.338663         3.280863         2.348359
 H        -0.359671         4.610532         0.054518
 H         0.116516         2.806410         0.630854
 H        -2.194695         1.558213        -2.028485
