19
Iteration:  3650
 O        -0.592290         0.113256         0.464604
 C        -1.793814         0.820702         0.145985
 C        -3.145748         0.342562        -0.043116
 C        -3.284662         1.830530        -0.231394
 C        -2.450201         1.924908         1.160832
 C        -1.674869         3.169788         1.578893
 C        -0.902326         3.625792         0.353128
 O        -1.450507         3.200851        -0.963188
 C        -1.952264         1.911398        -0.985468
 H        -0.677211        -0.843670         0.443577
 H        -3.336907        -0.203010        -0.929617
 H        -3.754526        -0.072699         0.738862
 H        -4.151973         2.460231        -0.412827
 H        -2.992996         1.537069         2.040668
 H        -2.500858         3.954464         1.749125
 H        -1.293648         2.959735         2.552528
 H        -0.731724         4.672744         0.326014
 H         0.128547         3.139236         0.398670
 H        -2.149487         1.593517        -1.973371
