19
Iteration:  2902
 O        -0.624264         0.036493         0.337367
 C        -1.801963         0.936830         0.264537
 C        -3.164757         0.237395        -0.063452
 C        -3.465148         1.768869        -0.035757
 C        -2.425233         1.896766         1.220689
 C        -1.773602         3.208665         1.417030
 C        -0.789290         3.597425         0.296691
 O        -1.304245         3.194521        -0.997245
 C        -2.101206         2.012548        -0.907477
 H         0.240830         0.341881         0.731851
 H        -3.185373        -0.182637        -1.080839
 H        -3.508375        -0.398308         0.703075
 H        -4.322088         2.497438        -0.268926
 H        -2.854008         1.349097         2.187650
 H        -2.595067         4.014068         1.499649
 H        -1.092275         3.411450         2.283111
 H        -0.282394         4.623394         0.307318
 H         0.086892         3.011455         0.434123
 H        -1.981910         1.457675        -1.846013
