19
Iteration:  4505
 O        -0.511659         0.175848         0.400167
 C        -1.732162         0.918898         0.183326
 C        -3.157341         0.319457        -0.281414
 C        -3.349724         1.817310        -0.088472
 C        -2.501314         1.732985         1.196599
 C        -1.834745         3.178923         1.539053
 C        -0.876129         3.524766         0.425528
 O        -1.305209         3.246166        -0.928179
 C        -2.048414         2.015389        -0.982432
 H        -1.110245        -0.425397         1.070036
 H        -3.095765        -0.053295        -1.309592
 H        -3.571836        -0.414778         0.419138
 H        -4.317175         2.337960        -0.352337
 H        -2.859256         1.345603         2.207436
 H        -2.659881         3.907828         1.720394
 H        -1.351089         2.916508         2.502667
 H        -0.574404         4.582403         0.403359
 H         0.057434         2.963082         0.663001
 H        -2.038294         1.730392        -2.082148
