19
Iteration:  4512
 O        -0.582171         0.161501         0.365054
 C        -1.743168         0.916007         0.189062
 C        -3.175147         0.280653        -0.239311
 C        -3.350884         1.776679        -0.163544
 C        -2.513410         1.802722         1.157421
 C        -1.831978         3.145256         1.606535
 C        -0.836878         3.563062         0.376097
 O        -1.317899         3.276764        -0.901387
 C        -1.989059         2.013527        -0.942281
 H        -0.586503        -0.287428         1.209446
 H        -3.053330        -0.010627        -1.298790
 H        -3.536441        -0.450364         0.507415
 H        -4.320293         2.191826        -0.427567
 H        -2.960918         1.256914         2.043269
 H        -2.550599         3.924758         1.842178
 H        -1.264796         2.954562         2.545966
 H        -0.634225         4.634421         0.393943
 H         0.038463         2.966703         0.590588
 H        -2.037854         1.568596        -1.934611
