19
Iteration:  4667charge 0 multiplicity 1
 O        -0.587350         0.240600         0.397588
 C        -1.766568         0.849608         0.117248
 C        -3.135380         0.283017        -0.324540
 C        -3.340175         1.802842        -0.226896
 C        -2.479349         1.713720         1.197377
 C        -1.935252         3.163746         1.592284
 C        -0.791894         3.615625         0.534865
 O        -1.292563         3.206089        -0.861898
 C        -1.973086         2.035005        -0.907258
 H        -0.543349        -0.728156         0.063307
 H        -3.230568        -0.062867        -1.375679
 H        -3.661108        -0.384213         0.387645
 H        -4.245768         2.429587        -0.252906
 H        -3.095823         1.301225         2.006722
 H        -2.788081         3.828849         1.746076
 H        -1.348046         3.066524         2.516314
 H        -0.735814         4.725323         0.507400
 H         0.296423         3.264035         0.620667
 H        -2.098616         1.584573        -1.880277
