19
Iteration:  2219charge 0 multiplicity 1
 O        -0.660239         0.078105         0.308787
 C        -1.722765         0.841815         0.246246
 C        -3.155650         0.288618        -0.038338
 C        -3.357347         1.871734        -0.069425
 C        -2.422021         1.902736         1.203441
 C        -1.781351         3.234925         1.418373
 C        -0.880515         3.637501         0.266866
 O        -1.360740         3.170872        -1.017359
 C        -1.976122         1.894078        -0.833228
 H        -0.655464        -0.314057         1.261120
 H        -3.371386        -0.117014        -1.032529
 H        -3.554421        -0.313759         0.798963
 H        -4.218192         2.570819        -0.238448
 H        -2.784066         1.558296         2.150552
 H        -2.413663         4.001671         1.681788
 H        -1.048922         3.060741         2.254068
 H        -0.728487         4.702679         0.316610
 H         0.067348         3.131163         0.268077
 H        -2.004913         1.406025        -1.756236
