19
Iteration:    44charge 0 multiplicity 1
 O        -0.816744        -0.132374         0.437906
 C        -1.812581         0.837968         0.274839
 C        -3.298612         0.459802         0.093484
 C        -3.293587         2.011184        -0.013777
 C        -2.327921         1.939115         1.279729
 C        -1.477052         3.278624         1.339234
 C        -1.408715         3.841881        -0.002547
 O        -0.968187         2.844218        -0.928209
 C        -1.892777         1.813141        -0.915801
 H        -0.015248         0.373724         0.346794
 H        -3.643431        -0.063197        -0.826663
 H        -3.714521        -0.035777         1.010948
 H        -4.020449         2.659134        -0.348228
 H        -2.687216         1.526916         2.301904
 H        -2.107110         4.002192         1.884965
 H        -0.498604         3.191418         1.885551
 H        -2.435101         4.298246        -0.340169
 H        -0.811727         4.751561        -0.157095
 H        -1.958018         1.427567        -1.865048
