19
Iteration:  3396
 O        -0.538845         0.236868         0.371239
 C        -1.732111         0.895258         0.101888
 C        -3.167679         0.322920        -0.128003
 C        -3.384748         1.779098        -0.051475
 C        -2.545009         1.905374         1.326792
 C        -1.817421         3.248195         1.401768
 C        -0.727724         3.403229         0.307097
 O        -1.371049         3.180896        -0.928559
 C        -2.031084         1.996918        -0.910177
 H        -0.670807        -0.644276         0.874131
 H        -3.216474        -0.160938        -1.131927
 H        -3.614108        -0.418334         0.623957
 H        -4.418922         2.260005        -0.158752
 H        -2.936048         1.292363         2.173813
 H        -2.589865         4.045694         1.270831
 H        -1.270556         3.433938         2.275746
 H        -0.225706         4.397201         0.440700
 H         0.000207         2.650698         0.552688
 H        -2.222346         1.585864        -1.877794
