19
Iteration:   422
 O        -0.560296         0.142572         0.402391
 C        -1.808741         0.880800         0.236138
 C        -3.250694         0.324077         0.053083
 C        -3.365262         1.874325        -0.024157
 C        -2.491496         1.973535         1.201381
 C        -1.793836         3.353618         1.398855
 C        -0.796750         3.542345         0.312471
 O        -1.206239         2.946660        -1.069500
 C        -2.090245         1.857920        -0.894359
 H        -0.046465         0.278537        -0.467551
 H        -3.541195        -0.275224        -0.773216
 H        -3.762578        -0.042187         0.982128
 H        -4.282017         2.511492        -0.341094
 H        -2.876841         1.492133         2.166817
 H        -2.570688         4.147118         1.334491
 H        -1.380209         3.363371         2.413885
 H        -0.584319         4.565563         0.093775
 H         0.127893         3.074406         0.516619
 H        -2.244859         1.495835        -1.946255
