19
Iteration:    69charge 0 multiplicity 1
 O        -0.781068        -0.175765         0.513653
 C        -1.759766         0.798933         0.361619
 C        -3.245710         0.412971         0.101512
 C        -3.211804         1.922344        -0.041688
 C        -2.399589         2.008444         1.206820
 C        -1.559975         3.318855         1.474101
 C        -1.248528         3.877621         0.015096
 O        -1.119047         2.937634        -1.060072
 C        -1.931559         1.825793        -0.928354
 H        -0.413303        -0.246595        -0.395955
 H        -3.469396        -0.131500        -0.847791
 H        -3.887672         0.067218         0.840586
 H        -4.169517         2.652710        -0.255734
 H        -2.942389         1.712325         2.049271
 H        -2.093526         4.005976         2.129366
 H        -0.681770         2.975394         1.960328
 H        -1.962279         4.607501        -0.252704
 H        -0.279460         4.502239        -0.039386
 H        -2.002582         1.392106        -2.000377
