19
Iteration:    98charge 0 multiplicity 1
 O        -0.738668         0.061425         0.670150
 C        -1.808765         0.762712         0.302308
 C        -3.281589         0.307283         0.006944
 C        -3.365503         1.850310        -0.057746
 C        -2.316689         1.894012         1.115733
 C        -1.498712         3.229646         1.378227
 C        -0.995019         3.916761         0.052969
 O        -1.234933         3.034060        -1.049629
 C        -2.032323         1.876871        -0.914048
 H        -0.751878        -0.745698         0.186575
 H        -3.477941        -0.227766        -0.964336
 H        -3.953739        -0.105084         0.817661
 H        -4.152657         2.454280        -0.228389
 H        -2.746142         1.611378         2.170759
 H        -2.131452         3.819387         2.070024
 H        -0.627434         2.825483         1.984669
 H        -1.592866         4.915326        -0.051700
 H         0.073424         4.046961         0.088544
 H        -2.069827         1.548401        -1.905030
