19
Iteration:   916
 O        -0.554248         0.181201         0.440332
 C        -1.853623         0.921650         0.331382
 C        -3.152076         0.277949        -0.032500
 C        -3.419432         1.799602        -0.049196
 C        -2.491832         1.931822         1.248167
 C        -1.758490         3.307886         1.354412
 C        -0.687322         3.419912         0.268084
 O        -1.343399         3.117384        -1.022400
 C        -2.120002         1.966696        -0.897294
 H        -0.431819        -0.293753        -0.464688
 H        -3.066161        -0.103067        -1.101892
 H        -3.862734        -0.145033         0.696193
 H        -4.301093         2.330524        -0.404844
 H        -2.951741         1.505306         2.170672
 H        -2.489279         4.133723         1.492649
 H        -1.168889         3.175759         2.286355
 H        -0.163675         4.444945         0.197517
 H         0.232165         2.797565         0.365910
 H        -2.238231         1.599952        -1.888932
