19
Iteration:  4492charge 0 multiplicity 1
 O        -0.529061         0.186566         0.481094
 C        -1.719516         0.892394         0.082140
 C        -3.095298         0.322380        -0.329121
 C        -3.363628         1.864233        -0.042649
 C        -2.448640         1.813481         1.203813
 C        -1.915259         3.122780         1.490409
 C        -0.846096         3.490505         0.432671
 O        -1.316681         3.185441        -0.920641
 C        -2.064505         2.059472        -0.914914
 H        -0.549029        -0.736439         0.538662
 H        -3.262649        -0.010662        -1.375879
 H        -3.640938        -0.249696         0.447515
 H        -4.286943         2.490157        -0.007994
 H        -2.900060         1.128326         2.013992
 H        -2.692458         3.901882         1.479329
 H        -1.351125         3.362226         2.430837
 H        -0.657027         4.564220         0.493618
 H         0.007328         2.867338         0.602767
 H        -2.287980         1.681353        -1.952955
