19
Iteration:   250
 O        -0.728893        -0.014494         0.394269
 C        -1.784090         0.882468         0.217826
 C        -3.142903         0.271705         0.107147
 C        -3.434082         1.780531        -0.002484
 C        -2.388520         1.997621         1.203548
 C        -1.775690         3.434924         1.348234
 C        -0.686956         3.513190         0.230943
 O        -1.308998         3.132708        -1.057085
 C        -2.089369         1.892710        -0.980350
 H        -0.211642         0.354402         1.141722
 H        -3.353309        -0.510537        -0.650540
 H        -3.475297         0.020083         1.144904
 H        -4.305831         2.253052        -0.154957
 H        -2.891661         1.656085         2.116169
 H        -2.656098         4.128095         1.274779
 H        -1.285994         3.543595         2.404184
 H        -0.409631         4.606674        -0.010803
 H         0.255503         3.047379         0.543680
 H        -2.040177         1.451011        -2.008395
