19
Iteration:  2226charge 0 multiplicity 1
 O        -0.662763         0.072000         0.365484
 C        -1.764048         0.855866         0.208576
 C        -3.143941         0.333581        -0.057617
 C        -3.297396         1.804622        -0.031282
 C        -2.443525         1.878239         1.236072
 C        -1.725967         3.210437         1.407314
 C        -0.866356         3.643169         0.244994
 O        -1.383703         3.199495        -1.027009
 C        -1.992087         1.932466        -0.852468
 H        -0.621493        -0.376773         1.250918
 H        -3.513052        -0.244193        -0.905950
 H        -3.610539        -0.281028         0.684686
 H        -4.140381         2.320703        -0.372059
 H        -2.976210         1.502620         2.153767
 H        -2.592112         3.941087         1.778052
 H        -1.108414         3.142905         2.270454
 H        -0.550197         4.725049         0.125092
 H         0.123805         3.155982         0.414073
 H        -2.063152         1.597987        -1.984935
