19
Iteration:  1853charge 0 multiplicity 1
 O        -0.645345        -0.007547         0.307383
 C        -1.727586         0.864340         0.267211
 C        -3.218436         0.248489        -0.037966
 C        -3.313525         1.849130         0.003693
 C        -2.402716         1.945470         1.264049
 C        -1.776144         3.306294         1.411277
 C        -0.840688         3.611617         0.281643
 O        -1.321606         3.115256        -1.070152
 C        -2.057663         1.971738        -0.918732
 H        -0.350822        -0.002473         1.254016
 H        -3.421133        -0.217894        -0.996231
 H        -3.562030        -0.219843         0.914739
 H        -4.084103         2.520833        -0.214308
 H        -2.929288         1.473087         2.139809
 H        -2.697269         3.970711         1.554182
 H        -1.262549         3.389042         2.369699
 H        -0.810969         4.679680         0.128063
 H         0.195445         3.241590         0.442591
 H        -2.158651         1.596726        -1.948675
