19
Iteration:  2044
 O        -0.601983         0.168437         0.351071
 C        -1.826170         0.835024         0.279077
 C        -3.251579         0.357899        -0.048074
 C        -3.316680         1.837890        -0.031233
 C        -2.445619         1.894990         1.199942
 C        -1.712973         3.160234         1.422584
 C        -0.918451         3.681348         0.276619
 O        -1.250597         3.071585        -1.070491
 C        -2.020845         1.866663        -0.896869
 H        -0.493673        -0.360520         1.157863
 H        -3.351624        -0.175742        -1.040777
 H        -3.814298        -0.123632         0.782121
 H        -4.207520         2.489867        -0.190584
 H        -2.511426         1.580742         2.246520
 H        -2.470829         3.772364         1.843534
 H        -0.969573         3.106291         2.290595
 H        -1.124054         4.745758         0.091324
 H         0.131829         3.681956         0.412293
 H        -2.232007         1.556789        -1.813376
