19
Iteration:  1356charge 0 multiplicity 1
 O        -0.542112         0.237985         0.402617
 C        -1.744562         0.942436         0.226400
 C        -3.246461         0.384003        -0.009484
 C        -3.386257         1.875143        -0.095768
 C        -2.390298         1.889007         1.189962
 C        -1.733382         3.248393         1.451641
 C        -0.763060         3.382392         0.286263
 O        -1.443418         3.106393        -0.987660
 C        -2.044610         1.874289        -0.969175
 H        -0.559722        -0.355744         1.146510
 H        -3.481875        -0.199173        -0.937940
 H        -3.746650        -0.128082         0.854966
 H        -4.182722         2.505731        -0.387707
 H        -2.895010         1.469398         2.094274
 H        -2.537309         3.969262         1.396198
 H        -1.234622         3.328636         2.428064
 H        -0.315930         4.350574         0.247952
 H         0.046827         2.665498         0.261643
 H        -2.214612         1.468709        -2.001211
