19
Iteration:    21
 O        -0.704130        -0.052777         0.450834
 C        -1.862181         0.762690         0.260297
 C        -3.347840         0.385175         0.016943
 C        -3.279115         2.014182         0.009417
 C        -2.281740         1.971911         1.177147
 C        -1.453177         3.294060         1.343286
 C        -1.407621         4.051998         0.029940
 O        -0.924219         2.712404        -0.905066
 C        -2.064736         1.785457        -0.919136
 H        -0.440692         0.310935         1.356500
 H        -3.540262        -0.119646        -0.940210
 H        -3.915845        -0.129977         0.878714
 H        -4.061257         2.616706        -0.118470
 H        -2.707588         1.649710         2.231410
 H        -1.799896         3.800718         2.263462
 H        -0.377322         2.992831         1.537102
 H        -2.364699         4.606985        -0.370806
 H        -0.637885         4.795803        -0.047722
 H        -2.325034         1.438503        -1.833899
