19
Iteration:  1648
 O        -0.625783         0.007817         0.365601
 C        -1.758300         0.818864         0.132478
 C        -3.162093         0.307612         0.037820
 C        -3.401331         1.784828        -0.061813
 C        -2.353550         1.939884         1.152255
 C        -1.777118         3.372797         1.505203
 C        -0.890524         3.708277         0.365636
 O        -1.225267         3.107066        -1.032002
 C        -2.078520         1.881824        -0.967172
 H        -1.064638        -0.761063         0.677651
 H        -3.460549        -0.177493        -0.892065
 H        -3.607780        -0.021333         0.999202
 H        -4.312297         2.281214        -0.185464
 H        -2.779154         1.498160         2.059415
 H        -2.591086         4.030934         1.628169
 H        -1.223938         3.222666         2.546195
 H        -0.807533         4.847641         0.073216
 H         0.145531         3.433299         0.525334
 H        -2.210620         1.760910        -2.045216
