19
Iteration:  4572
 O        -0.581137         0.252829         0.498132
 C        -1.789045         0.886460         0.131633
 C        -3.116226         0.270484        -0.286391
 C        -3.315538         1.876945        -0.140606
 C        -2.486371         1.771144         1.204319
 C        -1.857492         3.071893         1.552105
 C        -0.872969         3.500273         0.431215
 O        -1.304678         3.254305        -0.903209
 C        -2.045779         2.053857        -0.941711
 H        -0.369115        -0.526216        -0.047346
 H        -3.029220        -0.134923        -1.307722
 H        -3.502288        -0.500716         0.378462
 H        -4.281393         2.359465        -0.273098
 H        -3.029544         1.141082         1.937624
 H        -2.622754         3.865212         1.753053
 H        -1.167993         2.993066         2.414256
 H        -0.619809         4.570694         0.427822
 H         0.073631         2.981316         0.531181
 H        -2.073127         1.703806        -2.027707
