19
Iteration:  3023charge 0 multiplicity 1
 O        -0.517131         0.280317         0.303074
 C        -1.782808         0.857132         0.266563
 C        -3.170463         0.281627        -0.041390
 C        -3.331952         1.936170        -0.011912
 C        -2.493454         1.825831         1.241082
 C        -1.815285         3.159910         1.328167
 C        -0.804746         3.392712         0.331953
 O        -1.330992         3.176017        -0.990232
 C        -2.112202         1.975219        -0.930482
 H        -0.193339         0.087194         1.262239
 H        -3.465648        -0.172820        -0.990921
 H        -3.909034        -0.028537         0.668599
 H        -4.320650         2.412007         0.034477
 H        -2.714916         1.251371         2.166155
 H        -2.594200         4.040757         1.215483
 H        -1.464401         3.081224         2.367283
 H        -0.287579         4.399311         0.352358
 H         0.110615         2.692154         0.313829
 H        -2.053210         1.525746        -1.906806
