19
Iteration:  3547
 O        -0.616422         0.082616         0.220259
 C        -1.774562         0.907674         0.222453
 C        -3.115782         0.281655        -0.106699
 C        -3.387460         1.808538        -0.138910
 C        -2.495683         1.932062         1.166530
 C        -1.760443         3.279777         1.453158
 C        -0.843934         3.513110         0.379199
 O        -1.354987         3.185002        -0.854860
 C        -1.974469         1.946456        -0.851803
 H        -0.454405        -0.031324         1.221915
 H        -3.021617        -0.258455        -1.055616
 H        -3.639914        -0.156929         0.735627
 H        -4.380546         2.134348        -0.551232
 H        -3.009514         1.521183         2.039469
 H        -2.633667         4.027381         1.502494
 H        -1.207303         3.170461         2.426196
 H        -0.537866         4.598079         0.233110
 H         0.028130         2.907249         0.722187
 H        -1.968297         1.504117        -1.910117
