19
Iteration:   949charge 0 multiplicity 1
 O        -0.680798        -0.037849         0.411310
 C        -1.755107         0.826131         0.090291
 C        -3.192777         0.379652         0.066652
 C        -3.320000         1.907050         0.012187
 C        -2.360881         1.886746         1.246372
 C        -1.896742         3.355588         1.365364
 C        -0.782384         3.643275         0.279608
 O        -1.296579         3.057714        -0.953222
 C        -2.017844         1.905732        -0.924338
 H        -0.162930         0.120927        -0.377361
 H        -3.439088        -0.254231        -0.855854
 H        -3.675024        -0.163285         0.898457
 H        -4.145808         2.439879        -0.414721
 H        -2.731186         1.286387         2.099190
 H        -2.633453         4.184434         1.306656
 H        -1.434482         3.520458         2.379171
 H        -0.734926         4.765726         0.041089
 H         0.203197         3.140527         0.532306
 H        -2.293502         1.508850        -1.861682
