19
Iteration:  3570charge 0 multiplicity 1
 O        -0.515149         0.245319         0.276122
 C        -1.784095         0.843980         0.171382
 C        -3.211798         0.266109        -0.073870
 C        -3.347572         1.825557        -0.135625
 C        -2.533180         1.875659         1.188917
 C        -1.847808         3.252421         1.463685
 C        -0.674189         3.402763         0.405239
 O        -1.340508         3.226579        -0.882383
 C        -2.056705         1.901669        -0.948047
 H        -0.170439         0.417364         1.144140
 H        -3.509857        -0.038497        -1.068188
 H        -3.599283        -0.100790         0.882269
 H        -4.461532         2.299303        -0.275528
 H        -3.084620         1.424045         2.028254
 H        -2.644581         4.102808         1.190295
 H        -1.598375         3.124053         2.546354
 H        -0.309705         4.489654         0.454835
 H         0.134150         2.634564         0.610373
 H        -2.190622         1.409075        -1.976061
