19
Iteration:  2505charge 0 multiplicity 1
 O        -0.525629         0.157757         0.278665
 C        -1.781663         0.923252         0.275726
 C        -3.147891         0.298965        -0.044789
 C        -3.403752         1.802984        -0.113728
 C        -2.441115         1.939986         1.244723
 C        -1.793571         3.355855         1.423353
 C        -0.763879         3.411287         0.352454
 O        -1.384556         3.158877        -0.938560
 C        -2.107588         1.928875        -0.894169
 H        -0.725393        -0.755081         0.461809
 H        -3.138052        -0.053286        -1.070140
 H        -3.573115        -0.532101         0.555192
 H        -4.452871         2.295037        -0.436219
 H        -2.717138         1.451318         2.185533
 H        -2.648339         4.091332         1.380927
 H        -1.187685         3.478032         2.382776
 H        -0.345582         4.434801         0.198656
 H         0.118664         2.749987         0.622454
 H        -2.089119         1.574149        -1.941109
