19
Iteration:  2072charge 0 multiplicity 1
 O        -0.520291         0.207042         0.482116
 C        -1.781536         0.891684         0.193152
 C        -3.262579         0.301870        -0.137051
 C        -3.431378         1.815237        -0.102934
 C        -2.492134         1.918747         1.243620
 C        -1.577366         3.197292         1.546819
 C        -0.825059         3.617025         0.236346
 O        -1.368055         3.083040        -1.056510
 C        -2.090427         1.912451        -0.918748
 H        -0.715098        -0.259532         1.263222
 H        -3.340364        -0.238943        -1.086620
 H        -3.701920        -0.369336         0.603979
 H        -4.227931         2.491108        -0.362237
 H        -2.666319         1.332682         2.201700
 H        -2.333377         3.923187         2.008329
 H        -0.801839         3.017529         2.268315
 H        -0.907859         4.703616        -0.032463
 H         0.258641         3.263503         0.282025
 H        -2.418747         1.374054        -1.990498
