19
Iteration:  1439
 O        -0.535680         0.080707         0.513191
 C        -1.749269         0.837881         0.262814
 C        -3.320847         0.382588        -0.076664
 C        -3.353954         1.979838        -0.096040
 C        -2.432399         1.887103         1.228361
 C        -1.694435         3.150784         1.446962
 C        -0.854647         3.633046         0.221476
 O        -1.365904         3.091548        -1.018235
 C        -2.006897         1.853480        -0.924684
 H        -0.042964        -0.188386        -0.350326
 H        -3.537755        -0.127302        -1.002153
 H        -3.942526         0.101573         0.764199
 H        -4.272525         2.484373        -0.385690
 H        -2.898313         1.496809         2.146529
 H        -2.580779         3.809751         1.842281
 H        -1.024434         3.065237         2.382982
 H        -1.166136         4.768137         0.287250
 H         0.255824         3.543122         0.265661
 H        -2.007409         1.315831        -1.907953
