19
Iteration:  4433
 O        -0.535913         0.177478         0.249201
 C        -1.719752         0.930545         0.117471
 C        -3.092759         0.284091        -0.116048
 C        -3.283326         1.878856        -0.187021
 C        -2.676123         1.966301         1.162441
 C        -1.871527         3.165077         1.591858
 C        -0.811219         3.497969         0.450727
 O        -1.363370         3.109352        -0.854680
 C        -2.026604         1.901443        -0.997085
 H        -0.001951         0.260167         1.151945
 H        -3.234568        -0.364744        -1.036217
 H        -3.615523        -0.180659         0.746740
 H        -4.221538         2.375542        -0.405589
 H        -3.136807         1.598141         2.081914
 H        -2.509778         3.983988         1.928359
 H        -1.161389         2.886774         2.365363
 H        -0.455542         4.534675         0.506208
 H         0.057113         2.944323         0.797718
 H        -2.152991         1.609067        -2.024197
