19
Iteration:  3894charge 0 multiplicity 1
 O        -0.671870         0.150388         0.517799
 C        -1.794019         0.882325         0.127193
 C        -3.198534         0.292234        -0.138121
 C        -3.398185         1.897087        -0.052438
 C        -2.412042         1.806078         1.161654
 C        -1.718397         3.127252         1.543092
 C        -0.815936         3.747341         0.277438
 O        -1.244269         2.986766        -0.981168
 C        -2.064778         1.955851        -0.943926
 H         0.138897         0.642982         0.644819
 H        -3.459856        -0.091129        -1.128008
 H        -3.732385        -0.189293         0.664918
 H        -4.387061         2.374208        -0.297770
 H        -2.744800         1.134270         1.981021
 H        -2.491743         3.943572         1.684751
 H        -0.996345         3.022030         2.382464
 H        -1.334932         4.690764         0.127565
 H         0.233716         3.804955         0.309591
 H        -2.337295         1.691143        -1.947432
