19
Iteration:  4273
 O        -0.455075         0.098508         0.391159
 C        -1.765450         0.841723         0.185502
 C        -3.294793         0.302908        -0.182783
 C        -3.390235         1.844399        -0.059207
 C        -2.444317         1.830801         1.207146
 C        -1.830612         3.238989         1.445819
 C        -0.818819         3.547348         0.390331
 O        -1.315596         3.219196        -0.942326
 C        -2.069179         1.966439        -0.951838
 H        -0.295327         0.339249         1.381628
 H        -3.400947        -0.161391        -1.163972
 H        -3.719934        -0.343523         0.567479
 H        -4.264284         2.431198        -0.340336
 H        -2.887731         1.256307         2.001723
 H        -2.721374         3.885340         1.386676
 H        -1.228154         3.301944         2.393555
 H        -0.394578         4.552564         0.468499
 H         0.127098         2.919750         0.422835
 H        -2.115221         1.591518        -2.018403
