19
Iteration:   506charge 0 multiplicity 1
 O        -0.666703         0.109720         0.795598
 C        -1.820266         0.854373         0.256349
 C        -3.131230         0.292344        -0.094989
 C        -3.350133         1.848094        -0.123699
 C        -2.414204         1.899446         1.217394
 C        -1.579222         3.258081         1.413956
 C        -0.676580         3.457862         0.059701
 O        -1.605025         3.317219        -1.023356
 C        -2.033171         1.928641        -1.003779
 H        -0.482262        -0.640658         0.241523
 H        -3.278434        -0.174082        -1.093236
 H        -3.621551        -0.353454         0.705994
 H        -4.339296         2.421917        -0.354311
 H        -2.946153         1.497810         2.099909
 H        -2.231164         4.145735         1.557167
 H        -1.002212         3.075014         2.369714
 H        -0.307448         4.480417         0.022723
 H         0.006046         2.524157         0.047634
 H        -1.996612         1.464509        -1.936626
