19
Iteration:  3225
 O        -0.612892         0.062823         0.339725
 C        -1.755524         0.941609         0.152171
 C        -3.125397         0.304428        -0.126925
 C        -3.402759         1.807369         0.049109
 C        -2.496171         1.911911         1.278549
 C        -1.786999         3.265346         1.372244
 C        -0.751690         3.487587         0.277861
 O        -1.318529         3.152469        -1.001715
 C        -2.158367         1.961734        -0.870546
 H        -0.106080         0.456994         1.087148
 H        -3.060312        -0.048588        -1.110858
 H        -3.315802        -0.513146         0.504074
 H        -4.333207         2.464824         0.151134
 H        -2.575077         1.361155         2.225249
 H        -2.517783         4.094053         1.407377
 H        -1.337812         3.273672         2.427496
 H        -0.475848         4.532469         0.246092
 H         0.146507         2.929901         0.641540
 H        -2.399894         1.567717        -1.882165
