19
Iteration:  1100charge 0 multiplicity 1
 O        -0.665355         0.031799         0.325609
 C        -1.691557         0.923667         0.200146
 C        -3.204948         0.299543         0.004598
 C        -3.328395         1.864438        -0.028217
 C        -2.437562         1.907396         1.224395
 C        -1.844766         3.323453         1.419740
 C        -0.695107         3.468310         0.291698
 O        -1.376309         3.144092        -1.012346
 C        -2.093912         1.951268        -0.893374
 H        -0.007780         0.493601         0.896767
 H        -3.284456        -0.415236        -0.850731
 H        -3.702401        -0.109027         0.894844
 H        -4.256442         2.377117        -0.163346
 H        -2.764839         1.483632         2.182820
 H        -2.606678         4.080474         1.134369
 H        -1.469216         3.435613         2.343617
 H        -0.118780         4.420986         0.120897
 H         0.086627         2.780654         0.463054
 H        -2.254199         1.504457        -1.963425
