19
Iteration:  4251
 O        -0.629719         0.147665         0.311488
 C        -1.758002         0.880523         0.144521
 C        -3.182234         0.260706        -0.116491
 C        -3.241643         1.802274        -0.149942
 C        -2.456135         1.945949         1.133927
 C        -1.800389         3.269424         1.526778
 C        -0.802331         3.550547         0.368240
 O        -1.445129         3.172833        -0.809945
 C        -1.980252         1.883256        -0.929891
 H        -0.605508        -0.082096         1.207167
 H        -3.238117        -0.309353        -1.038082
 H        -3.623119        -0.212783         0.743729
 H        -4.186911         2.261924        -0.415483
 H        -3.053350         1.504322         1.907363
 H        -2.475016         4.147270         1.469294
 H        -1.335500         3.148377         2.546532
 H        -0.418756         4.575984         0.270397
 H         0.166876         2.969469         0.248244
 H        -1.978829         1.486284        -1.987102
