19
Iteration:  3810charge 0 multiplicity 1
 O        -0.637252        -0.033322         0.515552
 C        -1.723753         0.926499         0.192392
 C        -3.182718         0.309601        -0.120091
 C        -3.313254         1.812547        -0.032536
 C        -2.433096         1.852202         1.226064
 C        -1.810527         3.211374         1.438990
 C        -0.865484         3.567606         0.330244
 O        -1.329881         3.206984        -1.028029
 C        -2.043701         2.008798        -0.997215
 H         0.282239         0.352939         0.372473
 H        -3.381063        -0.220349        -1.061569
 H        -3.649478        -0.211892         0.800672
 H        -4.289886         2.393148        -0.051023
 H        -3.089782         1.458534         2.008185
 H        -2.586326         3.956587         1.433012
 H        -1.248414         3.445247         2.345866
 H        -0.636375         4.621752         0.322383
 H         0.208125         3.076904         0.355375
 H        -2.261217         1.804011        -2.074130
