19
Iteration:  4836
 O        -0.525518         0.083447         0.228424
 C        -1.719319         0.927435         0.137188
 C        -3.130359         0.294594        -0.278052
 C        -3.307891         1.839187        -0.318919
 C        -2.626823         1.865222         1.179613
 C        -1.910361         3.079133         1.614081
 C        -0.847902         3.536371         0.555431
 O        -1.379991         3.291692        -0.731679
 C        -1.900583         1.921985        -0.933405
 H         0.067234         0.569666         0.863481
 H        -3.290386        -0.088327        -1.275857
 H        -3.616321        -0.283176         0.513508
 H        -4.171248         2.503667        -0.511281
 H        -3.280271         1.255643         1.872135
 H        -2.661380         3.898877         1.535003
 H        -1.459244         3.100646         2.628341
 H        -0.817899         4.614316         0.802107
 H         0.167907         2.980687         0.845135
 H        -1.726238         1.604313        -1.991645
