19
Iteration:  4875
 O        -0.708269         0.111434         0.478799
 C        -1.728483         0.932169         0.076209
 C        -3.033153         0.248604        -0.415672
 C        -3.346747         1.825925        -0.146392
 C        -2.493285         1.712239         1.166807
 C        -1.894323         3.056573         1.574496
 C        -0.844167         3.544404         0.561907
 O        -1.336262         3.344730        -0.797177
 C        -1.984832         2.079947        -0.953997
 H         0.199842         0.121399         0.034858
 H        -2.843615        -0.007087        -1.491084
 H        -3.454747        -0.540283         0.282493
 H        -4.312389         2.301273        -0.437179
 H        -2.961120         1.207823         2.006597
 H        -2.723183         3.782251         1.487768
 H        -1.477629         3.096216         2.634041
 H        -0.711002         4.639062         0.441557
 H         0.120320         3.125038         0.574932
 H        -1.826599         1.907891        -2.084520
