19
Iteration:  2442charge 0 multiplicity 1
 O        -0.602733         0.339944         0.466672
 C        -1.780808         0.913497         0.168467
 C        -3.162611         0.291495        -0.168288
 C        -3.383327         1.871219        -0.028709
 C        -2.488542         1.878973         1.237029
 C        -1.684406         3.134803         1.496845
 C        -0.754605         3.508701         0.241807
 O        -1.412104         3.085855        -0.983217
 C        -2.079366         1.919556        -0.901625
 H        -0.618745        -0.618431         0.736956
 H        -3.183297         0.081044        -1.272598
 H        -3.538994        -0.525858         0.528930
 H        -4.294119         2.357098        -0.341589
 H        -2.828341         1.300503         2.086880
 H        -2.150039         4.070174         1.707967
 H        -1.022099         2.893557         2.402907
 H        -0.642653         4.645770         0.135782
 H         0.222584         3.052521         0.268432
 H        -2.302416         1.448532        -1.829352
