19
Iteration:  1706
 O        -0.525649         0.260377         0.472501
 C        -1.829246         0.899561         0.234075
 C        -3.135986         0.240138        -0.073237
 C        -3.402119         1.814676        -0.105539
 C        -2.441789         1.911382         1.193375
 C        -1.700637         3.274942         1.429023
 C        -0.746288         3.410435         0.267752
 O        -1.384737         3.146485        -0.950977
 C        -2.149789         1.982917        -0.973226
 H        -0.953731        -0.634531         0.412761
 H        -3.164790        -0.392141        -0.931082
 H        -3.762343        -0.133972         0.703570
 H        -4.340560         2.497949        -0.119659
 H        -2.852285         1.448883         2.093604
 H        -2.307486         4.227165         1.637727
 H        -1.063653         3.130555         2.272998
 H        -0.307097         4.394405         0.257356
 H         0.011493         2.637550         0.431141
 H        -2.415433         1.641281        -2.064873
