19
Iteration:  3220charge 0 multiplicity 1
 O        -0.621530         0.085468         0.332924
 C        -1.755875         0.924939         0.187389
 C        -3.116176         0.284428        -0.110821
 C        -3.435940         1.833887         0.065879
 C        -2.468915         1.904690         1.299984
 C        -1.810131         3.250875         1.373282
 C        -0.709433         3.459964         0.291609
 O        -1.308822         3.159677        -1.011316
 C        -2.155762         2.013190        -0.900589
 H        -0.032988         0.420874         1.074109
 H        -3.045168        -0.131001        -1.210280
 H        -3.443343        -0.622372         0.558112
 H        -4.415926         2.240322        -0.027344
 H        -2.619676         1.349026         2.241574
 H        -2.471431         4.137305         1.299178
 H        -1.491734         3.216438         2.370978
 H        -0.621314         4.584720         0.135455
 H         0.239985         2.908403         0.519650
 H        -2.384739         1.636937        -1.888994
