19
Iteration:  1577charge 0 multiplicity 1
 O        -0.602152         0.258734         0.496485
 C        -1.793293         0.839762         0.180393
 C        -3.241686         0.366408        -0.083759
 C        -3.387778         1.882046        -0.050115
 C        -2.430890         1.850677         1.135481
 C        -1.644480         3.060037         1.425460
 C        -0.831735         3.633449         0.302502
 O        -1.307376         3.050846        -1.042378
 C        -2.091802         1.942808        -0.923937
 H        -0.597812         0.105250         1.420752
 H        -3.435360        -0.233811        -1.016894
 H        -3.720825        -0.021511         0.848249
 H        -4.444824         2.322876        -0.247089
 H        -2.708485         1.259042         2.052319
 H        -2.364328         3.813075         1.807027
 H        -0.889212         2.945680         2.156868
 H        -0.855679         4.695718         0.268326
 H         0.253678         3.317889         0.309384
 H        -2.218262         1.666943        -1.999756
