19
Iteration:  1185charge 0 multiplicity 1
 O        -0.552349         0.197837         0.573123
 C        -1.772954         0.869693         0.167340
 C        -3.362547         0.351656        -0.064349
 C        -3.365308         1.881826        -0.102678
 C        -2.395454         1.898113         1.236318
 C        -1.625079         3.105262         1.490946
 C        -0.900634         3.589237         0.249355
 O        -1.294149         3.065582        -1.027377
 C        -2.095903         1.884903        -0.977841
 H         0.037548         0.283233        -0.186091
 H        -3.654928        -0.106299        -1.001365
 H        -3.833479        -0.091472         0.777520
 H        -4.263186         2.440512        -0.380700
 H        -2.967680         1.512766         2.064636
 H        -2.261769         3.934975         1.833444
 H        -0.940188         3.150804         2.363483
 H        -0.962861         4.654217         0.131341
 H         0.195802         3.254658         0.396338
 H        -2.184364         1.504918        -2.009718
