19
Iteration:  2422charge 0 multiplicity 1
 O        -0.533574         0.195938         0.460463
 C        -1.783383         0.851042         0.254616
 C        -3.221626         0.266582        -0.174116
 C        -3.390945         1.846784        -0.094834
 C        -2.419453         1.898658         1.184344
 C        -1.643594         3.167057         1.509999
 C        -0.864321         3.569073         0.269593
 O        -1.384144         3.161546        -0.995122
 C        -2.087553         1.962726        -0.944567
 H        -0.701966        -0.669435         0.985211
 H        -3.278137        -0.166333        -1.192164
 H        -3.700122        -0.101974         0.681161
 H        -4.243389         2.417369        -0.099852
 H        -2.920318         1.562615         2.125628
 H        -2.367185         3.857590         1.918513
 H        -0.901146         3.065787         2.268208
 H        -0.780579         4.667992         0.084260
 H         0.109521         3.111108         0.386881
 H        -2.196347         1.524106        -1.963512
