19
Iteration:  4018
 O        -0.488950         0.259346         0.482261
 C        -1.775127         0.953045         0.144414
 C        -3.218526         0.279221        -0.154204
 C        -3.389987         1.834173        -0.122311
 C        -2.525355         1.935094         1.161965
 C        -1.681731         3.198207         1.565579
 C        -0.853079         3.433624         0.350633
 O        -1.384029         3.151742        -0.984931
 C        -2.052206         1.960264        -0.958848
 H        -0.723557        -0.668183         0.416946
 H        -3.256384        -0.220003        -1.111731
 H        -3.469995        -0.326753         0.738400
 H        -4.370648         2.221404        -0.376637
 H        -2.902073         1.354996         1.987636
 H        -2.405454         4.017742         1.784848
 H        -1.085488         3.070717         2.541419
 H        -0.471236         4.424091         0.348469
 H        -0.027525         2.789308         0.461057
 H        -1.962970         1.376800        -1.891641
