19
Iteration:   819charge 0 multiplicity 1
 O        -0.639628        -0.043331         0.566013
 C        -1.771181         0.809674         0.261149
 C        -3.221401         0.335079        -0.048110
 C        -3.304516         1.884869        -0.091936
 C        -2.414317         1.927079         1.241615
 C        -1.697679         3.303568         1.471857
 C        -0.813865         3.595951         0.236050
 O        -1.382886         3.168233        -1.031858
 C        -2.080230         1.941044        -1.024467
 H        -0.045681        -0.268233        -0.239766
 H        -3.503928        -0.392751        -0.861948
 H        -3.756822        -0.151954         0.806150
 H        -4.167522         2.558811        -0.185667
 H        -2.733864         1.502028         2.284383
 H        -2.458747         4.126973         1.405536
 H        -1.115199         3.330924         2.339039
 H        -0.851394         4.728206        -0.034749
 H         0.176406         3.110145         0.229273
 H        -2.142658         1.612170        -2.130242
