19
Iteration:  1991
 O        -0.601444         0.030902         0.253980
 C        -1.742495         0.877755         0.293811
 C        -3.223428         0.293072        -0.020234
 C        -3.361307         1.829055        -0.035628
 C        -2.404095         1.886283         1.285292
 C        -1.830869         3.327931         1.489285
 C        -0.863926         3.696466         0.206062
 O        -1.237083         3.132780        -1.049469
 C        -2.039923         1.855218        -0.887011
 H        -0.796409        -0.705925         0.838890
 H        -3.362616        -0.189121        -0.973105
 H        -3.701526        -0.156154         0.847163
 H        -4.238305         2.542455        -0.137270
 H        -2.849965         1.566454         2.197583
 H        -2.752790         3.862561         1.622620
 H        -1.135299         3.533527         2.317053
 H        -0.871328         4.725442         0.023122
 H         0.115972         3.344464         0.556065
 H        -1.987053         1.392222        -1.848637
