19
Iteration:  3403charge 0 multiplicity 1
 O        -0.499138         0.230134         0.386253
 C        -1.806077         0.897259         0.126486
 C        -3.160022         0.291711        -0.142685
 C        -3.358793         1.841667        -0.009919
 C        -2.445040         1.900168         1.234050
 C        -1.837016         3.206837         1.387005
 C        -0.750570         3.423755         0.356008
 O        -1.381011         3.168412        -0.935196
 C        -2.084695         1.958824        -0.896117
 H        -0.824776        -0.419754         1.107043
 H        -3.364683         0.001845        -1.157096
 H        -3.522583        -0.312299         0.613920
 H        -4.219744         2.366612        -0.234462
 H        -2.938734         1.390784         2.065036
 H        -2.565091         4.043705         1.182699
 H        -1.321177         3.300761         2.408459
 H        -0.371434         4.465319         0.473604
 H         0.025971         2.573297         0.385341
 H        -2.100350         1.703659        -2.016797
