19
Iteration:   407charge 0 multiplicity 1
 O        -0.726588         0.076760         0.375202
 C        -1.765602         0.880509         0.147746
 C        -3.219861         0.296779         0.127281
 C        -3.403200         1.814466         0.038990
 C        -2.419230         2.008344         1.241405
 C        -1.876153         3.352496         1.320493
 C        -0.803362         3.526263         0.252916
 O        -1.145307         3.034975        -1.001477
 C        -2.035786         1.880151        -0.983465
 H         0.028216         0.607340         0.157145
 H        -3.379801        -0.254093        -0.858717
 H        -3.438250        -0.208840         1.089486
 H        -4.410559         2.342043        -0.036494
 H        -2.802205         1.466904         2.195162
 H        -2.691497         4.142848         1.363295
 H        -1.285694         3.543260         2.328082
 H        -0.430170         4.581480         0.122346
 H         0.191389         3.111679         0.583962
 H        -2.150074         1.488571        -1.967870
