19
Iteration:  1856
 O        -0.634103         0.019490         0.327843
 C        -1.713357         0.869995         0.263790
 C        -3.232082         0.267678        -0.032936
 C        -3.313340         1.850521        -0.004824
 C        -2.413574         1.934160         1.257445
 C        -1.762755         3.269301         1.392775
 C        -0.827181         3.594673         0.278449
 O        -1.318551         3.116604        -1.065190
 C        -2.081539         1.980071        -0.934408
 H        -0.319671        -0.042031         1.307431
 H        -3.501946        -0.207024        -1.054413
 H        -3.549286        -0.257775         0.940501
 H        -4.220716         2.403200        -0.352110
 H        -2.853470         1.513774         2.228030
 H        -2.654520         3.873347         1.518319
 H        -1.243911         3.388722         2.448857
 H        -0.780687         4.762865         0.127093
 H         0.202855         3.299766         0.556346
 H        -2.302710         1.611603        -1.873374
