19
Iteration:  3310charge 0 multiplicity 1
 O        -0.637149         0.130806         0.557165
 C        -1.791549         0.871692         0.151628
 C        -3.168530         0.316436        -0.221026
 C        -3.350814         1.895349        -0.046196
 C        -2.450080         1.861382         1.223818
 C        -1.679158         3.119282         1.512467
 C        -0.826489         3.601373         0.238409
 O        -1.374376         3.111786        -1.029219
 C        -2.089046         1.975543        -0.840370
 H         0.054573         0.353449        -0.045716
 H        -3.288390         0.018517        -1.296960
 H        -3.474672        -0.461663         0.591740
 H        -4.422019         2.296508         0.031017
 H        -2.742906         1.414891         2.177993
 H        -2.477991         3.840539         1.754334
 H        -0.973838         3.111419         2.331561
 H        -0.921912         4.697023         0.114490
 H         0.192000         3.310101         0.197227
 H        -2.093358         1.568780        -1.818301
