19
Iteration:  3439charge 0 multiplicity 1
 O        -0.589195         0.134647         0.354438
 C        -1.806425         0.867528         0.185558
 C        -3.182722         0.267698        -0.113775
 C        -3.391281         1.832420        -0.105827
 C        -2.509541         1.886537         1.182149
 C        -1.682015         3.164283         1.498836
 C        -0.871044         3.542194         0.340903
 O        -1.314564         3.208175        -0.954027
 C        -2.013886         1.929863        -0.922751
 H        -0.217796         0.656474         1.169667
 H        -3.579784        -0.164657        -1.011454
 H        -3.551472        -0.302019         0.774270
 H        -4.279350         2.343197        -0.627319
 H        -2.981243         1.597832         2.148359
 H        -2.391624         3.992157         1.869058
 H        -1.125994         2.953336         2.390152
 H        -0.727259         4.669721         0.230234
 H         0.210124         3.210602         0.469268
 H        -2.008254         1.395730        -1.902884
