19
Iteration:  1601charge 0 multiplicity 1
 O        -0.537610         0.179781         0.369653
 C        -1.813343         0.839533         0.298634
 C        -3.362833         0.328940        -0.178027
 C        -3.304832         1.857607        -0.067228
 C        -2.449138         1.959100         1.285595
 C        -1.676242         3.188845         1.546172
 C        -0.870122         3.693649         0.250231
 O        -1.325777         3.003574        -1.041218
 C        -2.041085         1.834976        -0.941316
 H        -0.453042        -0.143446         1.278970
 H        -3.230300        -0.033017        -1.242992
 H        -4.015840        -0.276933         0.523250
 H        -4.119268         2.598714        -0.276258
 H        -2.837611         1.436054         2.180129
 H        -2.275288         3.958690         1.884559
 H        -0.890429         2.978635         2.363609
 H        -1.058552         4.787686         0.195404
 H         0.229239         3.567776         0.156524
 H        -1.919312         1.481743        -1.948140
