19
Iteration:  2056charge 0 multiplicity 1
 O        -0.601681         0.220674         0.409768
 C        -1.802465         0.837973         0.248544
 C        -3.192083         0.331103        -0.112574
 C        -3.329873         1.936263        -0.005879
 C        -2.418969         1.846136         1.229352
 C        -1.657439         3.147674         1.441821
 C        -0.913961         3.659307         0.169823
 O        -1.319265         3.038679        -0.990197
 C        -2.057063         1.878393        -0.906154
 H        -0.602131        -0.279135         1.217883
 H        -3.385892        -0.081302        -1.123644
 H        -3.743426        -0.199173         0.684986
 H        -4.297849         2.494298        -0.068081
 H        -3.116510         1.482266         1.939170
 H        -2.303207         3.943993         1.684576
 H        -0.940983         2.946640         2.291669
 H        -1.093634         4.707731         0.096851
 H         0.116598         3.459244         0.308975
 H        -2.026385         1.459101        -1.825265
