19
Iteration:  1282
 O        -0.460806         0.157455         0.427094
 C        -1.757211         0.843635         0.218562
 C        -3.307431         0.372459        -0.000756
 C        -3.319971         1.885128        -0.056370
 C        -2.400119         1.897287         1.199629
 C        -1.829577         3.281138         1.411481
 C        -0.783445         3.482866         0.298911
 O        -1.336033         3.127416        -1.023737
 C        -2.111348         1.933491        -0.972375
 H        -0.861033        -0.719617         0.403844
 H        -3.541177        -0.184016        -0.920779
 H        -3.691877        -0.152720         0.869418
 H        -4.209998         2.512179        -0.183087
 H        -2.799253         1.565470         2.131771
 H        -2.774762         3.732146         1.454691
 H        -1.415227         3.421604         2.516637
 H        -0.221190         4.344430         0.150534
 H         0.064351         2.747145         0.540828
 H        -2.277787         1.557065        -1.906304
