19
Iteration:  1885
 O        -0.581927         0.336075         0.439659
 C        -1.795421         0.914663         0.184782
 C        -3.292983         0.201497        -0.094985
 C        -3.393039         1.855747        -0.005190
 C        -2.439964         1.891669         1.152109
 C        -1.646944         3.208044         1.457050
 C        -0.732023         3.473840         0.249435
 O        -1.401713         3.091922        -1.009502
 C        -2.054766         1.923073        -0.948557
 H        -0.597343        -0.017497         1.317402
 H        -3.492707        -0.359484        -0.968659
 H        -3.583096        -0.427501         0.743259
 H        -4.178301         2.555582        -0.041333
 H        -2.806329         1.562340         2.139396
 H        -2.441994         3.979168         1.732672
 H        -1.045198         3.074151         2.303351
 H        -0.519633         4.483867         0.092969
 H         0.213015         2.991892         0.521063
 H        -2.145829         1.419842        -1.963485
