19
Iteration:  3320charge 0 multiplicity 1
 O        -0.598305         0.160225         0.550019
 C        -1.788903         0.848265         0.209516
 C        -3.187038         0.368863        -0.183698
 C        -3.362088         1.831374         0.044144
 C        -2.432192         1.807853         1.224623
 C        -1.730058         3.129609         1.405462
 C        -0.854898         3.580879         0.222276
 O        -1.338633         3.153127        -0.969057
 C        -2.049436         1.962255        -0.954003
 H        -0.031229         0.340706        -0.159643
 H        -3.399765        -0.090826        -1.193248
 H        -3.857895        -0.227815         0.596276
 H        -4.204418         2.548307        -0.207414
 H        -2.826103         1.185533         2.051553
 H        -2.355767         3.974682         1.711254
 H        -1.083046         3.011188         2.246278
 H        -0.815082         4.698700         0.316152
 H         0.138799         3.256563         0.371548
 H        -2.314679         1.663443        -1.936203
