19
Iteration:   693
 O        -0.696709         0.053705         0.630416
 C        -1.798221         0.919897         0.296827
 C        -3.091395         0.282445        -0.149149
 C        -3.357562         1.814070        -0.048435
 C        -2.453400         2.023200         1.233624
 C        -1.617962         3.246315         1.406021
 C        -0.711568         3.400560         0.167856
 O        -1.499547         3.219440        -1.133475
 C        -2.139984         1.948983        -0.919227
 H        -0.057221         0.613291         1.136213
 H        -3.120932        -0.154231        -1.140345
 H        -3.566527        -0.261486         0.674209
 H        -4.417103         2.171307        -0.162118
 H        -2.824189         1.675026         2.160429
 H        -2.165023         4.084591         1.591031
 H        -0.967913         3.131030         2.282764
 H        -0.258823         4.333920         0.074528
 H         0.192304         2.695302         0.106395
 H        -2.242100         1.442413        -1.821618
