19
Iteration:   433
 O        -0.521858         0.215291         0.412656
 C        -1.794744         0.837692         0.315604
 C        -3.287801         0.355854         0.005696
 C        -3.383129         1.910483        -0.103811
 C        -2.466228         1.957523         1.198637
 C        -1.778957         3.292271         1.447856
 C        -0.756799         3.534118         0.182841
 O        -1.265765         2.951947        -0.986055
 C        -2.083417         1.846468        -0.872784
 H        -0.302892         0.066419        -0.511213
 H        -3.324476        -0.203593        -0.891307
 H        -3.815162        -0.135646         0.873164
 H        -4.368397         2.525656        -0.172413
 H        -3.135079         1.633179         2.070682
 H        -2.607225         4.042976         1.414390
 H        -1.242136         3.460021         2.397526
 H        -0.543993         4.575828        -0.001035
 H         0.097391         2.970058         0.474504
 H        -2.132115         1.298405        -1.858890
