19
Iteration:  3831charge 0 multiplicity 1
 O        -0.760920        -0.098203         0.412442
 C        -1.755730         0.797547         0.210143
 C        -3.097020         0.283125        -0.055919
 C        -3.326322         1.879076        -0.138008
 C        -2.419202         1.900206         1.181794
 C        -1.769078         3.320213         1.474135
 C        -0.876814         3.728837         0.295940
 O        -1.387890         3.199762        -0.946186
 C        -1.964249         1.900877        -0.922903
 H         0.120579         0.334545         0.589816
 H        -3.156647        -0.160156        -1.061212
 H        -3.585606        -0.383326         0.736413
 H        -4.305542         2.372361        -0.440980
 H        -2.674297         1.509539         2.165808
 H        -2.652010         3.854216         1.826615
 H        -1.121360         3.195969         2.393621
 H        -0.716842         4.800040         0.190353
 H         0.219049         3.290452         0.275292
 H        -1.851314         1.562884        -1.974300
