19
Iteration:  4239charge 0 multiplicity 1
 O        -0.576776         0.100658         0.309566
 C        -1.753623         0.966163         0.278423
 C        -3.097687         0.286887        -0.057547
 C        -3.446516         1.797442        -0.246821
 C        -2.509189         1.945392         1.174040
 C        -1.737952         3.210957         1.475809
 C        -0.778192         3.508020         0.374127
 O        -1.421393         3.211099        -0.883442
 C        -2.006487         1.925243        -0.961656
 H        -0.676244        -0.551926         1.051036
 H        -3.084995        -0.295640        -0.982982
 H        -3.575100        -0.275165         0.726070
 H        -4.259018         2.449714        -0.573893
 H        -2.949593         1.455895         2.056181
 H        -2.570586         3.911024         1.666412
 H        -1.166094         3.220493         2.455301
 H        -0.697363         4.597368         0.346405
 H         0.144091         2.943309         0.723280
 H        -1.835661         1.607961        -2.024394
