19
Iteration:   746
 O        -0.560942         0.177184         0.324476
 C        -1.842831         0.914840         0.248572
 C        -3.290162         0.301990         0.034762
 C        -3.383807         1.856369        -0.039384
 C        -2.559059         2.006107         1.253907
 C        -1.740606         3.292078         1.406193
 C        -0.752683         3.491914         0.229526
 O        -1.254658         2.990938        -0.959558
 C        -2.036616         1.818762        -0.902372
 H         0.035017         0.847673        -0.098989
 H        -3.333824        -0.355708        -0.808294
 H        -3.755804        -0.168074         0.916989
 H        -4.295130         2.456315        -0.359729
 H        -3.015990         1.627285         2.135421
 H        -2.493078         4.109830         1.587936
 H        -0.961339         3.369407         2.247625
 H        -0.546182         4.504153        -0.093682
 H         0.176849         3.009726         0.530331
 H        -2.088829         1.442446        -1.964275
