19
Iteration:    37
 O        -0.786288        -0.087833         0.439865
 C        -1.829756         0.786130         0.236808
 C        -3.369928         0.441562         0.060579
 C        -3.284732         1.929251         0.020575
 C        -2.283216         1.974561         1.224106
 C        -1.451396         3.293247         1.337118
 C        -1.400078         3.832415        -0.071053
 O        -0.968432         2.861845        -0.825383
 C        -1.926042         1.831256        -0.886536
 H        -0.008796         0.385941         0.771352
 H        -3.686755        -0.004622        -0.890612
 H        -3.884399         0.052282         0.896669
 H        -4.226122         2.681160        -0.113401
 H        -2.658538         1.627391         2.123397
 H        -1.959270         3.985534         2.020086
 H        -0.463054         3.129726         1.720519
 H        -2.337542         4.168002        -0.426540
 H        -0.772655         4.750857        -0.259229
 H        -1.969868         1.480373        -2.021007
