19
Iteration:  3545charge 0 multiplicity 1
 O        -0.628056         0.078039         0.232235
 C        -1.771265         0.902042         0.206952
 C        -3.099406         0.302117        -0.104463
 C        -3.385112         1.802847        -0.148780
 C        -2.490516         1.935005         1.180369
 C        -1.784151         3.283351         1.462447
 C        -0.841749         3.533415         0.368551
 O        -1.349515         3.181391        -0.858010
 C        -1.978094         1.936547        -0.856544
 H        -0.460712        -0.102452         1.203448
 H        -3.082351        -0.221698        -1.155082
 H        -3.594234        -0.183010         0.740869
 H        -4.339545         2.105337        -0.474105
 H        -2.978795         1.525969         2.065055
 H        -2.588889         4.018133         1.565392
 H        -1.181799         3.124374         2.424034
 H        -0.547992         4.606906         0.293335
 H         0.017034         2.912190         0.650850
 H        -1.994219         1.449885        -1.906434
