19
Iteration:  3536
 O        -0.653061         0.065644         0.297115
 C        -1.727150         0.876245         0.182005
 C        -3.079619         0.331749        -0.135145
 C        -3.340781         1.792566        -0.139806
 C        -2.492646         1.939909         1.227592
 C        -1.873458         3.256179         1.527891
 C        -0.814805         3.611344         0.357011
 O        -1.336868         3.166234        -0.928708
 C        -2.017863         1.910492        -0.925001
 H        -0.528603        -0.444605         1.129189
 H        -3.363372        -0.053627        -1.092148
 H        -3.439973        -0.361922         0.603780
 H        -4.309156         2.320018        -0.209000
 H        -2.872153         1.452761         2.130735
 H        -2.511574         4.144218         1.875065
 H        -1.200414         3.103850         2.420588
 H        -0.537337         4.713075         0.404482
 H         0.133731         3.038832         0.396150
 H        -1.973811         1.484399        -1.992470
