19
Iteration:  3666charge 0 multiplicity 1
 O        -0.657525         0.017854         0.521027
 C        -1.656573         0.911970         0.177248
 C        -3.191882         0.282107        -0.092889
 C        -3.299473         1.861765        -0.091554
 C        -2.420516         1.879969         1.150928
 C        -1.802649         3.198507         1.497515
 C        -0.902307         3.604981         0.297184
 O        -1.386920         3.241572        -0.945210
 C        -1.984083         1.966443        -0.998475
 H        -0.890384        -0.704713        -0.015553
 H        -3.374459        -0.329694        -1.056336
 H        -3.416187        -0.158112         0.894211
 H        -4.214883         2.431814        -0.345388
 H        -2.842147         1.277514         1.974431
 H        -2.482711         3.923060         1.827727
 H        -0.933214         3.133556         2.189476
 H        -0.888531         4.751060         0.366083
 H         0.101560         3.247134         0.449925
 H        -1.854965         1.539930        -2.068397
