19
Iteration:  3442
 O        -0.615484         0.143072         0.356669
 C        -1.776574         0.842318         0.189021
 C        -3.168071         0.261957        -0.112684
 C        -3.395592         1.849243        -0.100783
 C        -2.540142         1.917129         1.166279
 C        -1.672775         3.152115         1.504471
 C        -0.864445         3.553033         0.332223
 O        -1.317359         3.214009        -0.957933
 C        -2.001296         1.921799        -0.915016
 H        -0.088763         0.591597         1.066286
 H        -3.579373        -0.217326        -1.060815
 H        -3.529835        -0.358158         0.801863
 H        -4.284529         2.408522        -0.591671
 H        -2.987508         1.603127         2.147470
 H        -2.357971         3.914743         1.828975
 H        -1.096636         2.846361         2.356785
 H        -0.832624         4.634378         0.244274
 H         0.151208         3.275224         0.549239
 H        -2.038013         1.343284        -1.787625
