19
Iteration:  3751
 O        -0.544621         0.278281         0.358625
 C        -1.785462         0.924152         0.246901
 C        -3.171740         0.261536        -0.027684
 C        -3.454219         1.796934        -0.162138
 C        -2.600523         1.957192         1.063528
 C        -1.766978         3.228295         1.484863
 C        -0.682790         3.445484         0.388652
 O        -1.309783         3.093928        -0.924418
 C        -2.081654         1.903114        -0.893111
 H         0.098776         0.814435        -0.220564
 H        -3.202552        -0.496000        -0.862857
 H        -3.613549        -0.092458         0.876405
 H        -4.367599         2.279093        -0.434851
 H        -3.112390         1.558157         1.978547
 H        -2.539545         4.036488         1.827151
 H        -1.308657         2.810713         2.422672
 H        -0.257628         4.496400         0.408446
 H         0.138929         2.598789         0.449996
 H        -2.241679         1.568266        -1.900034
