19
Iteration:  3770charge 0 multiplicity 1
 O        -0.578259         0.298141         0.397266
 C        -1.774368         0.893470         0.213515
 C        -3.211557         0.234082        -0.110952
 C        -3.431666         1.786566        -0.137388
 C        -2.593231         1.963834         1.264660
 C        -1.693487         3.237835         1.463975
 C        -0.735595         3.379545         0.356183
 O        -1.334683         3.116331        -0.894735
 C        -2.063196         1.927702        -0.996941
 H         0.199891         0.730634         0.009439
 H        -3.324439        -0.160988        -1.108385
 H        -3.615051        -0.531409         0.551069
 H        -4.387419         2.225649        -0.328580
 H        -2.996379         1.565060         2.210819
 H        -2.345918         4.199535         1.328711
 H        -1.222793         3.341081         2.441823
 H        -0.470919         4.437284         0.264087
 H         0.145801         2.814421         0.630349
 H        -1.939285         1.397971        -1.967497
