19
Iteration:   640
 O        -0.712786        -0.051747         0.537802
 C        -1.802288         0.874731         0.208613
 C        -3.222566         0.308592         0.153629
 C        -3.346902         1.876473        -0.145157
 C        -2.352719         1.934721         1.122386
 C        -1.717536         3.279087         1.451102
 C        -0.866243         3.682486         0.186147
 O        -1.291779         3.110950        -1.048607
 C        -2.065008         1.874529        -1.012118
 H         0.113960         0.441190         0.748819
 H        -3.502781        -0.187118        -0.791685
 H        -3.555265        -0.162944         1.094508
 H        -4.217667         2.562170        -0.072221
 H        -2.757209         1.432175         2.014570
 H        -2.446322         4.034855         1.737691
 H        -0.955955         3.222476         2.220278
 H        -0.744143         4.683265        -0.017133
 H         0.160968         3.216459         0.348175
 H        -2.144902         1.559192        -1.985485
