19
Iteration:  4167charge 0 multiplicity 1
 O        -0.571760         0.155874         0.458417
 C        -1.815819         0.857708         0.184045
 C        -3.229142         0.237626        -0.121718
 C        -3.394285         1.851775        -0.082891
 C        -2.542869         1.893431         1.214704
 C        -1.786220         3.217588         1.419640
 C        -0.803706         3.489530         0.338983
 O        -1.283512         3.202615        -0.960618
 C        -2.024657         1.948839        -0.942943
 H         0.189329         0.754191         0.128199
 H        -3.198915        -0.316728        -1.090175
 H        -3.443512        -0.532783         0.699462
 H        -4.241879         2.546541        -0.261365
 H        -2.971757         1.354305         2.099069
 H        -2.322954         4.129670         1.648567
 H        -1.273482         2.971058         2.319626
 H        -0.614431         4.519371         0.644569
 H         0.063456         2.953888         0.421037
 H        -1.942486         1.652951        -1.986890
