19
Iteration:  3191charge 0 multiplicity 1
 O        -0.585810         0.176844         0.324330
 C        -1.762947         0.888660         0.143234
 C        -3.246530         0.252584        -0.027086
 C        -3.391326         1.845518        -0.044013
 C        -2.428648         1.892973         1.216967
 C        -1.797006         3.265183         1.399620
 C        -0.737147         3.447231         0.341991
 O        -1.364155         3.191743        -0.937137
 C        -2.088862         1.893159        -0.910992
 H         0.059897         0.843312         0.761821
 H        -3.327619        -0.315605        -0.892686
 H        -3.532277        -0.351310         0.814818
 H        -4.340175         2.512207        -0.192332
 H        -2.771695         1.360872         2.105235
 H        -2.412391         4.189006         1.448920
 H        -1.262916         3.082472         2.404732
 H        -0.376877         4.429049         0.110099
 H         0.112210         2.702774         0.445265
 H        -2.120364         1.552730        -1.937671
