19
Iteration:   635
 O        -0.723322        -0.017808         0.506824
 C        -1.822685         0.894630         0.212574
 C        -3.213370         0.323162         0.136483
 C        -3.293027         1.855939        -0.138728
 C        -2.354361         1.958879         1.155337
 C        -1.734722         3.260829         1.435168
 C        -0.875862         3.637834         0.154240
 O        -1.236960         3.068112        -1.044116
 C        -2.097257         1.908929        -0.953814
 H         0.151946         0.438628         0.591380
 H        -3.521984        -0.225617        -0.752810
 H        -3.572006        -0.122833         1.068517
 H        -4.211705         2.450130        -0.110936
 H        -2.784405         1.509517         2.056132
 H        -2.555150         3.958049         1.746518
 H        -0.953554         3.227840         2.225148
 H        -0.978788         4.818729         0.047405
 H         0.150315         3.290047         0.448972
 H        -2.262139         1.484304        -2.039197
