19
Iteration:  3727
 O        -0.576653         0.198362         0.447708
 C        -1.817112         0.892033         0.150605
 C        -3.179293         0.303750        -0.043509
 C        -3.381604         1.857470        -0.096102
 C        -2.475322         1.896740         1.188952
 C        -1.801440         3.219437         1.510016
 C        -0.838586         3.445154         0.340298
 O        -1.276810         3.151616        -0.959243
 C        -2.011734         1.903491        -0.986747
 H        -0.090152         0.501711        -0.297448
 H        -3.393249        -0.239934        -0.950465
 H        -3.630045        -0.151028         0.841503
 H        -4.293937         2.319430        -0.406889
 H        -2.903028         1.324360         2.034087
 H        -2.676949         4.010381         1.601888
 H        -1.243232         3.202175         2.461753
 H        -0.728949         4.529484         0.497888
 H         0.171591         2.886270         0.364829
 H        -2.088989         1.527590        -2.016676
