19
Iteration:  1412
 O        -0.783722         0.008763         0.581730
 C        -1.808646         0.869799         0.198621
 C        -3.130982         0.196530        -0.084671
 C        -3.360581         1.896326        -0.042445
 C        -2.358812         1.926292         1.178287
 C        -1.622903         3.216756         1.455504
 C        -0.866472         3.675537         0.230432
 O        -1.364751         3.185160        -1.035352
 C        -2.055707         1.952301        -1.006155
 H         0.160458         0.392153         0.413057
 H        -3.244221        -0.359003        -1.058255
 H        -3.651931        -0.240936         0.797219
 H        -4.361051         2.402114        -0.108604
 H        -2.763293         1.512352         2.124219
 H        -2.321546         3.783255         1.987938
 H        -0.788165         2.925950         2.137705
 H        -0.835012         4.707583         0.220969
 H         0.124981         3.193211         0.286167
 H        -2.100936         1.503366        -1.993189
