19
Iteration:  4259
 O        -0.593326         0.166680         0.352310
 C        -1.767029         0.731450         0.101161
 C        -3.183273         0.269328        -0.145658
 C        -3.292126         1.823525        -0.131227
 C        -2.465872         1.889178         1.141313
 C        -1.808730         3.298410         1.507247
 C        -0.761883         3.536352         0.393815
 O        -1.450272         3.210946        -0.889900
 C        -1.961235         1.889313        -0.917503
 H        -0.396371         0.104981         1.235718
 H        -3.489280        -0.143401        -1.140133
 H        -3.714469        -0.118580         0.724918
 H        -4.181573         2.474069        -0.167437
 H        -2.855276         1.547702         2.186536
 H        -2.472720         4.164546         1.610859
 H        -1.430401         3.283822         2.559940
 H        -0.566019         4.593937         0.145117
 H         0.084554         2.907722         0.721735
 H        -1.994379         1.616277        -1.970428
