19
Iteration:  2264
 O        -0.594303         0.209938         0.519175
 C        -1.763804         0.885147         0.183648
 C        -3.164422         0.316021        -0.146324
 C        -3.341525         1.815978        -0.029120
 C        -2.429825         1.898677         1.153413
 C        -1.692453         3.174812         1.438953
 C        -0.754628         3.523862         0.227914
 O        -1.479001         3.195247        -0.940038
 C        -2.072348         1.932061        -0.954065
 H        -0.933976        -0.577456         1.093422
 H        -3.230784        -0.086076        -1.156867
 H        -3.542450        -0.201956         0.755686
 H        -4.354532         2.316565        -0.328619
 H        -2.786414         1.483528         2.082328
 H        -2.393155         3.900484         1.656599
 H        -0.933908         3.017382         2.286998
 H        -0.394676         4.528844         0.133596
 H         0.046169         2.778734         0.302350
 H        -2.272617         1.534672        -1.881040
