19
Iteration:  1218
 O        -0.658953         0.151950         0.650239
 C        -1.793195         0.904332         0.176892
 C        -3.223839         0.267691        -0.119393
 C        -3.338259         1.834830        -0.080169
 C        -2.476588         1.936755         1.224624
 C        -1.539435         3.089525         1.445761
 C        -0.863056         3.656471         0.188244
 O        -1.394364         3.192728        -1.038554
 C        -2.044985         1.916042        -0.933690
 H        -0.407417        -0.714235         0.170949
 H        -3.464100        -0.098540        -1.115617
 H        -3.593114        -0.340973         0.674179
 H        -4.289876         2.304971        -0.318227
 H        -2.961203         1.595725         2.147529
 H        -2.138012         3.896738         1.858909
 H        -0.768256         2.744429         2.132618
 H        -0.803734         4.738591         0.234820
 H         0.208959         3.267563         0.256441
 H        -2.177678         1.556806        -1.945671
