19
Iteration:   129
 O        -0.645484         0.279287         0.734899
 C        -1.772819         0.905332         0.274785
 C        -3.168176         0.391959        -0.038105
 C        -3.437602         1.959722        -0.086008
 C        -2.441170         1.929619         1.132225
 C        -1.492434         3.008549         1.481815
 C        -0.963216         3.590625         0.097542
 O        -1.309794         2.984157        -1.184591
 C        -2.093261         1.904561        -0.886506
 H        -0.607736        -0.636052         0.282468
 H        -3.329090        -0.148521        -0.973040
 H        -3.753393        -0.027606         0.901711
 H        -4.189126         2.548949        -0.471548
 H        -2.929629         1.479778         2.108552
 H        -1.895720         3.793331         2.185642
 H        -0.646344         2.461183         2.065348
 H        -1.336232         4.684538        -0.018936
 H         0.071094         3.689510        -0.019689
 H        -2.270114         1.385885        -1.865888
