19
Iteration:  3677charge 0 multiplicity 1
 O        -0.669097        -0.017986         0.533082
 C        -1.747108         0.891506         0.188472
 C        -3.100038         0.330186        -0.109890
 C        -3.336605         1.800610        -0.102089
 C        -2.382890         1.819119         1.187131
 C        -1.797982         3.203424         1.452737
 C        -0.846242         3.739745         0.326078
 O        -1.358281         3.226400        -1.037337
 C        -2.046565         1.995434        -0.903159
 H        -0.568654        -0.692320        -0.168475
 H        -3.245743        -0.165588        -1.141180
 H        -3.701564        -0.270660         0.573902
 H        -4.241305         2.419562        -0.048257
 H        -2.837945         1.425573         2.109997
 H        -2.605870         3.811283         1.723045
 H        -1.313128         3.029496         2.437038
 H        -0.552545         4.841892         0.286596
 H         0.056112         3.175045         0.449441
 H        -2.056810         1.461863        -1.918439
