19
Iteration:   580charge 0 multiplicity 1
 O        -0.590880         0.232516         0.380291
 C        -1.876727         0.817917         0.213427
 C        -3.296486         0.338735         0.058745
 C        -3.383413         1.931761        -0.036371
 C        -2.465362         1.926220         1.233732
 C        -1.714777         3.325207         1.384625
 C        -0.840016         3.689657         0.190084
 O        -1.121142         2.786409        -0.937855
 C        -2.068128         1.801415        -0.892092
 H        -0.156782         0.311964        -0.532800
 H        -3.510067        -0.191781        -0.883580
 H        -3.846320        -0.136261         0.870653
 H        -4.231118         2.604011        -0.090111
 H        -2.771561         1.383370         2.137754
 H        -2.549534         4.016003         1.453070
 H        -1.215199         3.454306         2.350525
 H        -1.126811         4.837449         0.001534
 H         0.241056         3.771761         0.474768
 H        -2.289653         1.386744        -1.976947
