19
Iteration:  4673charge 0 multiplicity 1
 O        -0.573846         0.234668         0.421293
 C        -1.788476         0.859747         0.122199
 C        -3.125424         0.305376        -0.364882
 C        -3.372578         1.821536        -0.176477
 C        -2.451047         1.695337         1.195393
 C        -1.875111         3.118496         1.571092
 C        -0.825188         3.617815         0.513326
 O        -1.286653         3.224914        -0.829987
 C        -2.003480         2.000158        -0.918183
 H        -0.593757        -0.685889         0.398828
 H        -3.177586         0.074541        -1.443566
 H        -3.691547        -0.347324         0.315145
 H        -4.256980         2.464538        -0.313405
 H        -3.011325         1.176387         1.991775
 H        -2.757478         3.804994         1.510394
 H        -1.458046         3.180482         2.601786
 H        -0.836184         4.691107         0.269028
 H         0.205668         3.258553         0.639432
 H        -1.948104         1.740227        -2.029004
