19
Iteration:  4892
 O        -0.576291         0.175919         0.561072
 C        -1.735967         0.856610         0.106072
 C        -3.095803         0.329290        -0.517643
 C        -3.395361         1.764038        -0.180409
 C        -2.522366         1.693696         1.111770
 C        -1.863746         3.091727         1.512771
 C        -0.810036         3.596083         0.523549
 O        -1.340654         3.320696        -0.757662
 C        -1.972604         2.047668        -0.874719
 H        -0.230004        -0.060775        -0.386927
 H        -3.285277         0.104998        -1.557569
 H        -3.642321        -0.375705         0.055639
 H        -4.330756         2.292035        -0.172563
 H        -2.847968         1.106951         2.023515
 H        -2.684497         3.828105         1.548631
 H        -1.560233         2.965356         2.518358
 H        -0.655390         4.651283         0.729192
 H         0.214906         3.070829         0.744360
 H        -2.149037         1.655656        -1.818008
