19
Iteration:  2811
 O        -0.548393         0.256177         0.516833
 C        -1.778217         0.913193         0.203591
 C        -3.188570         0.330127        -0.145355
 C        -3.358442         1.796190        -0.036358
 C        -2.417997         1.864839         1.169109
 C        -1.717852         3.201134         1.494349
 C        -0.806554         3.471353         0.281872
 O        -1.383951         3.143983        -0.988410
 C        -2.116552         1.991039        -0.960345
 H        -0.534948        -0.722948         0.187789
 H        -3.144869         0.048470        -1.199149
 H        -3.847532        -0.280162         0.502815
 H        -4.269834         2.290853        -0.082614
 H        -2.837683         1.356627         2.025357
 H        -2.651809         3.842709         1.638786
 H        -1.186269         3.078221         2.401826
 H        -0.390066         4.403831         0.139951
 H         0.024435         2.895577         0.556627
 H        -2.226990         1.607297        -2.000130
