19
Iteration:  2704charge 0 multiplicity 1
 O        -0.533172         0.284381         0.321498
 C        -1.827262         0.865548         0.211798
 C        -3.235495         0.309852        -0.050413
 C        -3.389859         1.825691        -0.035391
 C        -2.453271         1.841458         1.227142
 C        -1.867361         3.249366         1.467421
 C        -0.716691         3.511230         0.306234
 O        -1.267143         3.188315        -0.967282
 C        -2.018107         1.864978        -0.949650
 H        -0.573826        -0.707319         0.256192
 H        -3.607538        -0.158156        -0.918691
 H        -3.583032        -0.187563         0.824042
 H        -4.325153         2.247439        -0.166415
 H        -2.952342         1.250116         2.056312
 H        -2.716747         3.921073         1.452153
 H        -1.481781         3.336805         2.470043
 H        -0.401202         4.609672         0.279270
 H         0.113378         2.783709         0.562043
 H        -2.157125         1.461972        -1.907505
