19
Iteration:  3626charge 0 multiplicity 1
 O        -0.518889         0.250684         0.393464
 C        -1.812525         0.918046         0.226856
 C        -3.242650         0.263093        -0.189189
 C        -3.437874         1.775007        -0.128216
 C        -2.558754         1.891465         1.198023
 C        -1.680234         3.169122         1.439087
 C        -0.815403         3.528426         0.299566
 O        -1.332442         3.194136        -0.902694
 C        -1.956403         1.915863        -0.884341
 H        -0.643679        -0.522794         1.045957
 H        -3.348574        -0.190948        -1.146914
 H        -3.690110        -0.378659         0.599465
 H        -4.315948         2.497934        -0.266035
 H        -2.945542         1.476612         2.135132
 H        -2.309195         4.081007         1.810837
 H        -1.156212         2.821689         2.311724
 H        -0.644261         4.610929         0.227167
 H         0.207424         3.101605         0.497986
 H        -2.079544         1.587467        -1.909256
