19
Iteration:  4943
 O        -0.502735         0.286817         0.301112
 C        -1.787598         0.937268         0.077995
 C        -3.065104         0.255181        -0.260145
 C        -3.405971         1.767049        -0.297476
 C        -2.627186         1.841663         1.049883
 C        -1.919607         3.092963         1.619212
 C        -0.847765         3.451597         0.595179
 O        -1.300943         3.266936        -0.694672
 C        -1.905430         2.062313        -0.952218
 H        -0.828780        -0.662244         0.384631
 H        -2.895551        -0.261843        -1.275514
 H        -3.472380        -0.370823         0.612723
 H        -4.244753         2.413790        -0.544450
 H        -3.081959         1.294294         1.925896
 H        -2.682064         3.879261         1.835804
 H        -1.413755         2.723987         2.590455
 H        -0.633187         4.538317         0.835592
 H         0.024658         2.851147         0.690253
 H        -1.801060         1.581224        -2.043989
