19
Iteration:   821
 O        -0.645727        -0.029870         0.570425
 C        -1.767981         0.807294         0.262290
 C        -3.201037         0.324460        -0.062194
 C        -3.318723         1.886872        -0.104453
 C        -2.424752         1.930048         1.241833
 C        -1.678499         3.301943         1.484984
 C        -0.823831         3.574851         0.226891
 O        -1.395555         3.160707        -1.043404
 C        -2.080625         1.960970        -1.002334
 H        -0.111365        -0.254693        -0.229570
 H        -3.436916        -0.363552        -0.865758
 H        -3.739646        -0.114742         0.804429
 H        -4.181523         2.594650        -0.201426
 H        -2.739784         1.490270         2.238593
 H        -2.459311         4.154779         1.488441
 H        -1.012217         3.345248         2.355320
 H        -0.811028         4.661729        -0.037081
 H         0.195510         3.141744         0.268569
 H        -2.097453         1.535705        -2.106514
