19
Iteration:  4383charge 0 multiplicity 1
 O        -0.549219         0.166961         0.520925
 C        -1.776236         0.889156         0.161055
 C        -3.077848         0.261636        -0.304330
 C        -3.435805         1.812721        -0.037545
 C        -2.443383         1.831978         1.154081
 C        -1.811389         3.171417         1.488983
 C        -0.797343         3.519116         0.344956
 O        -1.353522         3.180638        -0.902163
 C        -2.092868         2.057010        -0.893283
 H        -0.529253        -0.688448         0.163464
 H        -3.194189         0.049721        -1.357319
 H        -3.583314        -0.487045         0.295683
 H        -4.232785         2.531790        -0.219348
 H        -2.856715         1.490637         2.108758
 H        -2.596670         3.963831         1.364923
 H        -1.267267         3.304572         2.465820
 H        -0.680263         4.594861         0.478637
 H         0.228178         3.108163         0.534621
 H        -2.219180         1.782704        -1.990418
