19
Iteration:  4848
 O        -0.541680         0.027426         0.316766
 C        -1.659973         0.851013         0.136264
 C        -3.128296         0.335627        -0.254831
 C        -3.305470         1.836865        -0.248563
 C        -2.602465         1.827369         1.098997
 C        -1.946931         3.107685         1.645601
 C        -0.926052         3.514973         0.572344
 O        -1.350195         3.328985        -0.794680
 C        -1.917659         2.072293        -0.973932
 H         0.330703         0.531983         0.519800
 H        -3.058388        -0.180345        -1.204660
 H        -3.792942        -0.216824         0.413935
 H        -4.257041         2.174101        -0.645303
 H        -3.188902         1.416781         1.966801
 H        -2.695735         3.867660         1.942167
 H        -1.518666         2.738806         2.585740
 H        -0.514209         4.518227         0.453439
 H         0.073914         2.871412         0.647081
 H        -1.863330         1.755834        -2.037970
