19
Iteration:  3066charge 0 multiplicity 1
 O        -0.597722         0.189017         0.309660
 C        -1.795512         0.838271         0.221662
 C        -3.118784         0.267329        -0.037359
 C        -3.387143         1.737953        -0.081541
 C        -2.464828         1.982118         1.181502
 C        -1.751851         3.301259         1.423518
 C        -0.721718         3.519455         0.346820
 O        -1.377914         3.155489        -0.910217
 C        -2.109603         1.949922        -0.919522
 H        -0.723908        -0.787376         0.389884
 H        -3.173575        -0.263810        -1.039506
 H        -3.524280        -0.311737         0.802357
 H        -4.387396         2.158711        -0.183738
 H        -3.136828         1.740992         1.955496
 H        -2.571181         4.041045         1.769050
 H        -1.090575         3.223470         2.290517
 H        -0.371899         4.578614         0.185424
 H         0.300835         3.036229         0.498564
 H        -2.113585         1.648964        -1.977306
