19
Iteration:  1379charge 0 multiplicity 1
 O        -0.616798         0.049238         0.470250
 C        -1.806744         0.836802         0.257367
 C        -3.191399         0.250394        -0.115739
 C        -3.308283         1.870854        -0.038709
 C        -2.439035         1.903899         1.222793
 C        -1.671659         3.270835         1.410756
 C        -0.766218         3.540776         0.184402
 O        -1.478178         3.248403        -0.997118
 C        -2.021143         1.934250        -0.930618
 H        -0.408206         0.109212         1.433512
 H        -3.435715        -0.245412        -1.084359
 H        -3.779054        -0.228213         0.692059
 H        -4.247564         2.399699        -0.176301
 H        -3.016580         1.609335         2.106794
 H        -2.365793         4.050893         1.620065
 H        -0.984357         3.107076         2.287511
 H        -0.372461         4.509262         0.165676
 H         0.072136         2.814840         0.138687
 H        -2.087793         1.545243        -1.936817
