19
Iteration:  2265
 O        -0.595718         0.216875         0.515634
 C        -1.762539         0.888443         0.186050
 C        -3.163778         0.317960        -0.146033
 C        -3.337973         1.816315        -0.033338
 C        -2.443070         1.894215         1.166177
 C        -1.696037         3.174473         1.447663
 C        -0.754554         3.518054         0.216333
 O        -1.475495         3.196505        -0.935211
 C        -2.062872         1.928869        -0.961044
 H        -0.952091        -0.549073         1.061650
 H        -3.241972        -0.135816        -1.180428
 H        -3.570196        -0.216556         0.775383
 H        -4.366711         2.294865        -0.300201
 H        -2.787202         1.463023         2.111124
 H        -2.377310         3.941974         1.658508
 H        -0.930970         3.029337         2.290203
 H        -0.380844         4.536291         0.142386
 H         0.078290         2.769407         0.247454
 H        -2.278851         1.529240        -1.898612
