19
Iteration:  1225charge 0 multiplicity 1
 O        -0.631857         0.100591         0.632886
 C        -1.819428         0.873822         0.249027
 C        -3.181322         0.282758        -0.143023
 C        -3.422676         1.779679        -0.095955
 C        -2.521452         1.941286         1.209376
 C        -1.490842         3.212268         1.445051
 C        -0.838216         3.594743         0.216336
 O        -1.404671         3.208710        -1.029433
 C        -2.039218         1.965956        -0.968147
 H        -0.700882        -0.802111         0.188638
 H        -3.215466        -0.117832        -1.181128
 H        -3.563300        -0.337232         0.703691
 H        -4.383159         2.193219        -0.411559
 H        -2.734899         1.646296         2.240608
 H        -2.043489         3.974507         1.984247
 H        -0.704084         2.842054         2.243976
 H        -1.000017         4.667292         0.219118
 H         0.225067         3.259874         0.113074
 H        -2.137972         1.651930        -1.997929
