19
Iteration:  1195
 O        -0.566879         0.222897         0.621078
 C        -1.850673         0.825102         0.209194
 C        -3.319510         0.383178        -0.054111
 C        -3.336861         1.931938        -0.150507
 C        -2.379733         1.832381         1.198503
 C        -1.601026         3.106898         1.493172
 C        -0.904926         3.581026         0.244996
 O        -1.352354         3.090117        -1.045251
 C        -2.063387         1.905171        -1.005982
 H         0.029516         0.039649        -0.071016
 H        -3.449260        -0.216138        -0.943360
 H        -3.849788        -0.019756         0.778757
 H        -4.242706         2.534517        -0.171939
 H        -2.694383         1.348918         2.106864
 H        -2.400812         3.778299         1.729874
 H        -0.853839         2.873788         2.316080
 H        -0.998378         4.635498         0.241980
 H         0.250984         3.392067         0.283560
 H        -2.207853         1.562904        -1.998851
