19
Iteration:  3914
 O        -0.621579         0.200978         0.432851
 C        -1.837403         0.803029         0.266733
 C        -3.249026         0.254795        -0.172411
 C        -3.406215         1.809502        -0.069238
 C        -2.474463         1.927068         1.189565
 C        -1.688247         3.175731         1.477242
 C        -0.914837         3.654396         0.299125
 O        -1.154774         3.068463        -0.965692
 C        -2.087064         1.924138        -0.918607
 H         0.127802         0.672216         0.161431
 H        -3.377620        -0.203292        -1.179174
 H        -3.746602        -0.308683         0.579153
 H        -4.279888         2.453745        -0.109312
 H        -2.977912         1.606625         2.155216
 H        -2.370715         3.931004         1.946256
 H        -0.893472         2.890002         2.147863
 H        -0.974251         4.798871         0.252538
 H         0.172756         3.352053         0.367160
 H        -1.967832         1.631877        -1.958481
