19
Iteration:  2589
 O        -0.601082         0.106214         0.341113
 C        -1.755943         0.937328         0.287213
 C        -3.215412         0.303304        -0.110322
 C        -3.369196         1.827523        -0.140982
 C        -2.528571         1.849121         1.182256
 C        -1.664704         3.116262         1.451932
 C        -0.814384         3.674882         0.280068
 O        -1.345503         3.149593        -1.009263
 C        -2.032144         1.955309        -0.833950
 H        -0.341673         0.181379         1.310399
 H        -3.247837        -0.359674        -1.069386
 H        -3.774503        -0.140681         0.744757
 H        -4.407665         2.348211        -0.201811
 H        -3.026577         1.427601         2.168821
 H        -2.288853         3.884580         2.006089
 H        -0.975027         2.923465         2.310177
 H        -0.924065         4.738718         0.212523
 H         0.222663         3.230244         0.398163
 H        -2.121622         1.435797        -1.891253
