19
Iteration:  1122
 O        -0.587351         0.022615         0.324319
 C        -1.756136         0.798428         0.124744
 C        -3.197615         0.334889         0.039809
 C        -3.424335         1.911851         0.105610
 C        -2.399718         1.985130         1.197479
 C        -1.863232         3.383681         1.358180
 C        -0.821009         3.414466         0.355052
 O        -1.292775         3.117807        -0.944778
 C        -2.034813         1.916712        -1.000016
 H         0.131133         0.706690         0.217243
 H        -3.460851        -0.273528        -0.869788
 H        -3.718670        -0.133815         0.878217
 H        -4.349259         2.364485        -0.168761
 H        -2.734048         1.598607         2.190475
 H        -2.735052         4.029353         1.143682
 H        -1.330777         3.541877         2.193924
 H        -0.259375         4.395486         0.307432
 H        -0.074273         2.792867         0.676897
 H        -2.020620         1.508854        -2.108162
