19
Iteration:  4262charge 0 multiplicity 1
 O        -0.559857         0.157944         0.361820
 C        -1.776579         0.708917         0.108685
 C        -3.192757         0.276624        -0.157618
 C        -3.333347         1.831757        -0.120810
 C        -2.469017         1.872710         1.166688
 C        -1.804997         3.304146         1.488554
 C        -0.757814         3.532735         0.401887
 O        -1.436509         3.222721        -0.918170
 C        -1.969166         1.902116        -0.921693
 H        -0.318140         0.169868         1.336801
 H        -3.552176        -0.102310        -1.104891
 H        -3.736840        -0.149972         0.665751
 H        -4.162586         2.535206        -0.157731
 H        -2.783805         1.499638         2.122399
 H        -2.571669         4.108186         1.606396
 H        -1.379755         3.295839         2.545113
 H        -0.582585         4.582890         0.189059
 H         0.076253         2.899689         0.835475
 H        -1.997345         1.645675        -2.030916
