19
Iteration:  2451
 O        -0.550657         0.342027         0.445322
 C        -1.823339         0.918459         0.270951
 C        -3.172554         0.300200        -0.176480
 C        -3.418731         1.782015        -0.055733
 C        -2.493857         1.887884         1.175292
 C        -1.682392         3.140102         1.498272
 C        -0.710853         3.445986         0.272583
 O        -1.388855         3.149914        -1.024716
 C        -2.086909         1.955752        -0.919778
 H        -0.650011        -0.626055         0.647949
 H        -3.328308        -0.264174        -1.144484
 H        -3.668131        -0.215426         0.749310
 H        -4.435582         2.346498         0.102343
 H        -2.850843         1.462201         2.104701
 H        -2.431266         3.944087         1.793829
 H        -1.046521         2.928636         2.475663
 H        -0.676362         4.539207         0.076140
 H         0.315407         3.006657         0.333646
 H        -2.127129         1.580176        -1.950492
