19
Iteration:  1065
 O        -0.627090         0.137113         0.507683
 C        -1.761224         0.873647         0.171280
 C        -3.292906         0.263058        -0.135104
 C        -3.354441         1.806395        -0.045920
 C        -2.468264         1.958502         1.217088
 C        -1.558141         3.200611         1.538151
 C        -0.773513         3.627256         0.208701
 O        -1.406543         3.107982        -1.051724
 C        -2.089266         1.916461        -0.942836
 H        -0.191987         0.454989         1.328924
 H        -3.357820        -0.247856        -1.091975
 H        -3.927456        -0.187667         0.625536
 H        -4.257728         2.383293        -0.359787
 H        -2.987504         1.560641         2.117880
 H        -2.084721         3.936641         2.107189
 H        -0.919630         2.829653         2.232171
 H        -0.741510         4.667699         0.042325
 H         0.176028         3.202876         0.252209
 H        -2.195325         1.451517        -1.986572
