19
Iteration:  1915charge 0 multiplicity 1
 O        -0.474815         0.377224         0.422176
 C        -1.790674         0.985999         0.303666
 C        -3.184620         0.267065        -0.040497
 C        -3.465085         1.852630        -0.153442
 C        -2.591478         1.933863         1.151969
 C        -1.630664         3.126148         1.451712
 C        -0.679538         3.314472         0.224037
 O        -1.473722         3.139075        -0.986305
 C        -2.100649         1.963428        -0.900381
 H        -0.380178        -0.391529         1.029569
 H        -3.143000        -0.448762        -0.860079
 H        -3.675524        -0.169712         0.820684
 H        -4.507116         2.361500        -0.167434
 H        -3.054148         1.705364         2.077084
 H        -2.179204         4.038232         1.695718
 H        -0.985877         2.846101         2.273518
 H        -0.373141         4.313710         0.025749
 H         0.181403         2.561333         0.294353
 H        -1.994370         1.341531        -1.908701
