19
Iteration:  1007
 O        -0.672783         0.019330         0.434822
 C        -1.830644         0.889075         0.254688
 C        -3.176161         0.293718        -0.068524
 C        -3.404175         1.885214        -0.076492
 C        -2.410105         1.936414         1.173361
 C        -1.539950         3.168759         1.477066
 C        -0.899197         3.720506         0.209263
 O        -1.324558         3.038608        -0.986853
 C        -2.116557         1.922592        -0.914864
 H        -0.166592         0.415993         1.191330
 H        -3.088427        -0.076328        -1.074716
 H        -3.645141        -0.379746         0.674155
 H        -4.376655         2.347601        -0.328061
 H        -3.055231         1.885437         2.072306
 H        -2.194020         3.929176         1.871794
 H        -0.800566         2.923109         2.120801
 H        -1.021705         4.763227         0.025223
 H         0.174852         3.609652         0.221767
 H        -1.948476         1.574591        -1.893924
