19
Iteration:  1324
 O        -0.580384         0.344325         0.271718
 C        -1.857284         0.976531         0.267429
 C        -3.195109         0.233277         0.011538
 C        -3.597631         1.754250         0.001016
 C        -2.513856         1.990472         1.214606
 C        -1.743574         3.269847         1.388312
 C        -0.667156         3.486563         0.347401
 O        -1.175541         3.002897        -1.022242
 C        -2.082413         1.894531        -0.888391
 H        -0.463904        -0.686770         0.365046
 H        -3.253399        -0.193499        -1.020359
 H        -3.609087        -0.384756         0.850633
 H        -4.409761         2.186170        -0.511076
 H        -2.959510         1.650352         2.152976
 H        -2.271600         4.183211         1.455284
 H        -1.238846         3.224434         2.488772
 H        -0.348203         4.476219         0.271477
 H         0.234730         2.815349         0.491033
 H        -2.295170         1.642071        -1.937180
