19
Iteration:  3927charge 0 multiplicity 1
 O        -0.602140         0.148878         0.383397
 C        -1.784181         0.951391         0.257771
 C        -3.235323         0.286660        -0.076354
 C        -3.358199         1.853620        -0.119494
 C        -2.579967         1.894370         1.192588
 C        -1.743107         3.139053         1.488540
 C        -0.807349         3.616160         0.297555
 O        -1.275596         3.069365        -0.983707
 C        -1.957488         1.898361        -0.862087
 H        -0.002826         0.708312        -0.252965
 H        -3.285020        -0.170267        -1.057646
 H        -3.934129        -0.149617         0.623780
 H        -4.366528         2.257239        -0.399268
 H        -3.029647         1.399491         2.076489
 H        -2.266935         4.049661         1.912134
 H        -1.182314         2.825718         2.394598
 H        -0.978806         4.678192         0.072236
 H         0.212560         3.533694         0.588760
 H        -2.128396         1.420810        -1.788927
