19
Iteration:   221
 O        -0.664040        -0.110324         0.351298
 C        -1.745190         0.815241         0.314693
 C        -3.196545         0.346175         0.018574
 C        -3.345395         1.833577         0.043186
 C        -2.340538         2.029311         1.247412
 C        -1.833650         3.471890         1.217653
 C        -0.762299         3.484777         0.197984
 O        -1.364442         3.108294        -0.996735
 C        -2.053136         1.901877        -0.864913
 H        -0.012359         0.279287         0.908423
 H        -3.382825        -0.235044        -0.968125
 H        -3.734342        -0.057236         0.853766
 H        -4.325514         2.412158        -0.115498
 H        -2.860657         1.784268         2.264354
 H        -2.688548         4.104851         0.940568
 H        -1.442989         3.846881         2.205031
 H        -0.480151         4.570698         0.088628
 H         0.136189         2.984662         0.585111
 H        -2.028500         1.460803        -1.829916
