19
Iteration:  4956charge 0 multiplicity 1
 O        -0.537192         0.269584         0.285208
 C        -1.724620         0.847483         0.141557
 C        -3.079183         0.196783        -0.384920
 C        -3.338899         1.774654        -0.277860
 C        -2.634993         1.832820         1.125439
 C        -1.922720         3.127197         1.610949
 C        -0.776695         3.505923         0.643385
 O        -1.307405         3.334298        -0.749579
 C        -2.000151         2.020577        -0.915293
 H        -0.503657        -0.600567         0.697255
 H        -3.243409        -0.335577        -1.329954
 H        -3.715224        -0.349565         0.323125
 H        -4.319470         2.083333        -0.539240
 H        -3.211665         1.226437         1.868645
 H        -2.567595         4.028243         1.693517
 H        -1.543677         2.991422         2.642882
 H        -0.404274         4.505433         0.604023
 H         0.077903         2.863519         0.898322
 H        -1.918220         2.001265        -2.043794
