19
Iteration:  2084charge 0 multiplicity 1
 O        -0.590727         0.250078         0.481000
 C        -1.788440         0.854162         0.245696
 C        -3.198638         0.268142        -0.091807
 C        -3.428130         1.785456        -0.054442
 C        -2.399186         1.955448         1.155317
 C        -1.619759         3.155126         1.472469
 C        -0.806308         3.575595         0.263551
 O        -1.391817         3.172441        -1.048248
 C        -2.105929         1.877323        -0.961033
 H        -0.550765        -0.359469         1.262402
 H        -3.407912        -0.157439        -1.092344
 H        -3.794248        -0.101128         0.748878
 H        -4.431304         2.131930        -0.272785
 H        -2.971842         1.567725         2.069743
 H        -2.090336         4.099379         1.886902
 H        -1.019146         2.718290         2.264985
 H        -0.632100         4.715053         0.318779
 H         0.242586         3.129534         0.394408
 H        -2.063987         1.573047        -2.163852
