19
Iteration:  4796
 O        -0.486663         0.229660         0.348720
 C        -1.706750         0.910034         0.073334
 C        -3.111957         0.345348        -0.412297
 C        -3.457707         1.762254        -0.059284
 C        -2.594238         1.736544         1.147266
 C        -1.945916         3.133752         1.570450
 C        -0.858568         3.450492         0.609798
 O        -1.171283         3.229213        -0.854443
 C        -2.037421         2.103114        -0.958241
 H        -0.703332        -0.333843         1.131448
 H        -3.251234        -0.123890        -1.403332
 H        -3.329109        -0.442887         0.343378
 H        -4.302010         2.371968        -0.337493
 H        -2.914489         1.199224         2.030357
 H        -2.664350         3.958291         1.514595
 H        -1.552928         3.174125         2.601945
 H        -0.767112         4.517386         0.614547
 H         0.044303         3.037328         0.635157
 H        -2.068009         1.736244        -1.990306
