19
Iteration:  1797charge 0 multiplicity 1
 O        -0.690262        -0.012245         0.402266
 C        -1.803916         0.804371         0.226207
 C        -3.144866         0.296098         0.021243
 C        -3.371796         1.853109         0.002474
 C        -2.418182         1.911210         1.221453
 C        -1.775191         3.265839         1.400076
 C        -0.800963         3.667582         0.271468
 O        -1.286473         3.165632        -1.042581
 C        -2.043466         1.938403        -0.942976
 H         0.065259         0.520819         0.339394
 H        -3.505241        -0.253481        -0.837920
 H        -3.592300        -0.225802         0.881307
 H        -4.313800         2.243954        -0.306910
 H        -2.802084         1.410296         2.143025
 H        -2.726493         3.932948         1.606493
 H        -1.151409         3.281687         2.249372
 H        -0.621814         4.688021         0.127800
 H         0.132676         3.106980         0.409955
 H        -2.153217         1.721482        -2.063616
