19
Iteration:   899
 O        -0.567225         0.364045         0.538546
 C        -1.740908         0.923910         0.164543
 C        -3.218015         0.301531        -0.053857
 C        -3.398553         1.909460        -0.075122
 C        -2.527520         1.946105         1.202381
 C        -1.674557         3.145863         1.454829
 C        -0.747238         3.318899         0.221164
 O        -1.390534         3.129767        -1.007306
 C        -2.089338         1.902585        -0.915101
 H        -0.431143        -0.443336        -0.091223
 H        -3.430864        -0.267087        -0.931837
 H        -3.435093        -0.237418         0.874158
 H        -4.407801         2.381158        -0.111571
 H        -3.036534         1.488566         2.074459
 H        -2.227951         4.103305         1.394166
 H        -1.162154         3.213118         2.418019
 H        -0.313392         4.274934         0.201663
 H         0.099412         2.602975         0.304217
 H        -2.174264         1.341928        -1.909882
