19
Iteration:  1144
 O        -0.673068         0.121388         0.280551
 C        -1.791404         0.920978         0.292709
 C        -3.166569         0.282423        -0.003162
 C        -3.386031         1.791067        -0.040444
 C        -2.473861         1.927874         1.238377
 C        -1.780630         3.359031         1.434882
 C        -0.743767         3.503006         0.287306
 O        -1.210817         3.031404        -0.971823
 C        -2.130815         1.946809        -0.868698
 H         0.048031         0.413778        -0.295273
 H        -3.429962        -0.231267        -0.954586
 H        -3.567279        -0.303940         0.834337
 H        -4.225836         2.415788        -0.329044
 H        -3.072832         1.529817         2.111525
 H        -2.656762         4.003859         1.199741
 H        -1.316281         3.445801         2.342950
 H        -0.528457         4.624598         0.213454
 H         0.198041         3.147343         0.508108
 H        -2.224191         1.455199        -1.953922
