19
Iteration:   618charge 0 multiplicity 1
 O        -0.680741         0.056881         0.399041
 C        -1.819859         0.874558         0.268347
 C        -3.198394         0.353133         0.010507
 C        -3.404374         1.918455         0.041592
 C        -2.491757         1.929309         1.263014
 C        -1.719077         3.277253         1.399420
 C        -0.879230         3.704446         0.198123
 O        -1.163058         2.921768        -1.074093
 C        -2.019099         1.832510        -0.898595
 H         0.080320         0.564119         0.066948
 H        -3.328880        -0.230024        -0.933936
 H        -3.722980        -0.123535         0.879027
 H        -4.339817         2.538492        -0.169422
 H        -2.881190         1.557586         2.227551
 H        -2.414674         4.146258         1.439732
 H        -1.111618         3.297610         2.309208
 H        -1.052485         4.642245        -0.128274
 H         0.217740         3.547575         0.260100
 H        -2.158574         1.436498        -1.833275
