19
Iteration:  1572
 O        -0.611955         0.251067         0.497491
 C        -1.831387         0.889812         0.183711
 C        -3.222533         0.335159        -0.039702
 C        -3.391426         1.851700        -0.083888
 C        -2.411532         1.845784         1.157011
 C        -1.661154         3.047258         1.422765
 C        -0.787380         3.621880         0.293413
 O        -1.284110         3.093830        -1.052868
 C        -2.139247         1.951551        -0.962217
 H        -0.590664         0.062825         1.504217
 H        -3.323234        -0.239219        -0.931662
 H        -3.755317        -0.032462         0.825161
 H        -4.320297         2.296038        -0.178468
 H        -2.664641         1.321494         2.075553
 H        -2.394096         3.827073         1.786893
 H        -1.005884         2.757534         2.346460
 H        -0.925909         4.751277         0.304772
 H         0.206375         3.238229         0.231069
 H        -2.147131         1.709600        -2.036313
