19
Iteration:  2325
 O        -0.506372         0.335609         0.293952
 C        -1.805342         0.905875         0.166193
 C        -3.235612         0.282856        -0.041876
 C        -3.444814         1.845477        -0.080687
 C        -2.442183         1.927835         1.212083
 C        -1.733078         3.238113         1.519144
 C        -0.746750         3.455036         0.393980
 O        -1.303504         3.080337        -0.997405
 C        -2.125797         1.854608        -0.941801
 H        -0.652274        -0.396425         1.015561
 H        -3.474823        -0.370334        -0.970813
 H        -3.486931        -0.359234         0.843206
 H        -4.357899         2.294712        -0.347609
 H        -2.880175         1.489260         2.162655
 H        -2.588563         4.045630         1.307247
 H        -1.408439         3.438498         2.518005
 H        -0.383294         4.517781         0.370331
 H         0.186713         2.793877         0.408982
 H        -2.183685         1.508159        -2.079288
