19
Iteration:   790
 O        -0.725223        -0.009863         0.401006
 C        -1.799899         0.821639         0.212065
 C        -3.234284         0.305382         0.009635
 C        -3.364264         1.875367         0.002645
 C        -2.317098         1.875054         1.240966
 C        -1.853190         3.368599         1.304334
 C        -0.836366         3.658556         0.249110
 O        -1.236807         3.090436        -0.979715
 C        -1.990194         1.910074        -0.876483
 H        -0.040890        -0.072951        -0.277544
 H        -3.533508        -0.340341        -0.776314
 H        -3.534549        -0.070220         1.003536
 H        -4.216284         2.616117        -0.004656
 H        -2.446298         1.457616         2.197173
 H        -2.696089         4.116580         1.161136
 H        -1.431602         3.535357         2.373991
 H        -0.698271         4.693206         0.052650
 H         0.116685         3.174679         0.467288
 H        -1.981125         1.542509        -1.939005
