19
Iteration:   617
 O        -0.669901         0.056759         0.393946
 C        -1.833612         0.878263         0.271663
 C        -3.201010         0.351951         0.007230
 C        -3.411509         1.920412         0.040403
 C        -2.502015         1.927554         1.266496
 C        -1.723981         3.284259         1.404675
 C        -0.874153         3.712164         0.192397
 O        -1.158389         2.916663        -1.072100
 C        -2.013363         1.821079        -0.891639
 H         0.104738         0.572542         0.027754
 H        -3.325634        -0.178610        -0.955937
 H        -3.719565        -0.174592         0.858175
 H        -4.358639         2.572512        -0.129203
 H        -2.865382         1.549485         2.217960
 H        -2.384598         4.123475         1.435635
 H        -1.099420         3.314386         2.301038
 H        -1.063730         4.651789        -0.148219
 H         0.245725         3.533653         0.258649
 H        -2.159972         1.423423        -1.804034
