19
Iteration:  2676
 O        -0.507366         0.204515         0.285636
 C        -1.790698         0.948286         0.221368
 C        -3.058497         0.280937        -0.072921
 C        -3.482024         1.842594        -0.105955
 C        -2.537959         2.012344         1.176867
 C        -1.796470         3.309022         1.510440
 C        -0.757799         3.421003         0.281989
 O        -1.339198         3.086962        -0.857790
 C        -2.075756         1.915711        -0.877192
 H        -0.772313        -0.695182         0.391988
 H        -3.132361        -0.168208        -1.147726
 H        -3.517471        -0.283881         0.812691
 H        -4.573056         2.071283        -0.464443
 H        -2.852357         1.371079         2.009980
 H        -2.570089         4.129177         1.526165
 H        -1.176035         3.175781         2.483739
 H        -0.241108         4.369652         0.154384
 H         0.094533         2.741829         0.446212
 H        -2.316351         1.603441        -1.967322
