19
Iteration:  2494charge 0 multiplicity 1
 O        -0.546415         0.228069         0.309986
 C        -1.730527         0.962816         0.176456
 C        -3.129077         0.303684        -0.033834
 C        -3.384978         1.826090        -0.085276
 C        -2.435238         1.957720         1.175664
 C        -1.762798         3.273771         1.461311
 C        -0.779011         3.422785         0.374074
 O        -1.435306         3.122759        -0.870348
 C        -2.079806         1.873159        -0.994570
 H        -0.820378        -0.755403         0.397918
 H        -3.174138        -0.271541        -0.972286
 H        -3.652141        -0.134084         0.883754
 H        -4.512249         2.300626        -0.031365
 H        -3.046417         1.595275         2.010841
 H        -2.421081         4.184229         1.244326
 H        -1.356749         3.478823         2.530221
 H        -0.231770         4.385555         0.245105
 H        -0.078324         2.536002         0.452487
 H        -1.974573         1.362620        -1.978365
