19
Iteration:   379
 O        -0.632343        -0.030823         0.362175
 C        -1.736278         0.844127         0.262988
 C        -3.213466         0.305797        -0.000421
 C        -3.338485         1.828570        -0.024240
 C        -2.407706         2.029126         1.299918
 C        -1.819428         3.404044         1.272778
 C        -0.716227         3.537346         0.259077
 O        -1.334584         3.112512        -1.017834
 C        -2.124723         1.882194        -0.879398
 H        -0.305815        -0.011470         1.278200
 H        -3.237031        -0.151221        -0.943655
 H        -3.744327        -0.321019         0.765279
 H        -4.281407         2.422736        -0.269283
 H        -2.811845         1.597717         2.193003
 H        -2.587437         4.139982         1.109565
 H        -1.439813         3.606046         2.217407
 H        -0.481559         4.594606         0.113482
 H         0.303839         3.092329         0.381809
 H        -2.263340         1.468131        -1.943207
