19
Iteration:  3354
 O        -0.557516         0.233806         0.366305
 C        -1.777668         0.895337         0.165744
 C        -3.150305         0.316857        -0.046582
 C        -3.386044         1.811793        -0.080976
 C        -2.500599         1.893979         1.159043
 C        -1.783939         3.276890         1.501597
 C        -0.782911         3.468913         0.339752
 O        -1.358373         3.116994        -0.867577
 C        -2.026298         1.887571        -0.970667
 H        -0.456735        -0.391759        -0.339683
 H        -3.479320        -0.317869        -0.922836
 H        -3.619190        -0.019395         0.981661
 H        -4.322094         2.400127        -0.439779
 H        -2.907126         1.394887         2.082993
 H        -2.464643         4.119571         1.457889
 H        -1.285832         3.133783         2.450200
 H        -0.581315         4.550951         0.151900
 H         0.129596         2.943960         0.510909
 H        -2.059132         1.686747        -2.018137
