19
Iteration:   411charge 0 multiplicity 1
 O        -0.690923         0.101163         0.381905
 C        -1.773138         0.880465         0.166962
 C        -3.231276         0.300378         0.114333
 C        -3.383734         1.822715         0.021789
 C        -2.447236         2.005189         1.248693
 C        -1.881163         3.346728         1.337994
 C        -0.774564         3.518706         0.297932
 O        -1.157126         3.017353        -1.032513
 C        -2.044163         1.870359        -0.990605
 H         0.128635         0.509229        -0.060244
 H        -3.506874        -0.206098        -0.777317
 H        -3.529690        -0.211675         1.068670
 H        -4.378845         2.415261        -0.169578
 H        -2.656212         1.577932         2.277706
 H        -2.582064         4.198819         1.380084
 H        -1.258698         3.459151         2.217980
 H        -0.689016         4.553085         0.121180
 H         0.129401         3.134315         0.698232
 H        -2.259834         1.455924        -2.010512
