19
Iteration:  1301charge 0 multiplicity 1
 O        -0.594208         0.299398         0.303378
 C        -1.799251         0.890371         0.180971
 C        -3.178146         0.276448        -0.025669
 C        -3.400334         1.879148        -0.008475
 C        -2.512700         1.938700         1.237517
 C        -1.801406         3.341826         1.383589
 C        -0.747952         3.417503         0.298209
 O        -1.225061         2.993930        -0.951361
 C        -2.110797         1.886724        -0.871099
 H        -0.462693        -0.618461         0.280144
 H        -3.293205        -0.195479        -1.030248
 H        -3.736468        -0.225555         0.809756
 H        -4.329484         2.418484         0.003146
 H        -2.857252         1.484741         2.200378
 H        -2.453181         4.240889         1.359421
 H        -1.262845         3.475137         2.388824
 H        -0.537067         4.481262         0.233395
 H         0.212494         2.893372         0.442782
 H        -2.157882         1.512992        -1.958569
