19
Iteration:  4210
 O        -0.584939         0.237103         0.500143
 C        -1.758331         0.925413         0.196811
 C        -3.152382         0.233110        -0.173789
 C        -3.344382         1.814943        -0.049862
 C        -2.533555         1.875049         1.217595
 C        -1.779864         3.163057         1.490208
 C        -0.811076         3.480709         0.300630
 O        -1.344900         3.203978        -0.966630
 C        -2.016784         1.971944        -0.976780
 H        -0.622213        -0.717890         0.058539
 H        -3.326709        -0.025817        -1.233739
 H        -3.621185        -0.383784         0.638510
 H        -4.157268         2.542022        -0.286124
 H        -2.982737         1.381955         2.087684
 H        -2.580786         3.912518         1.750154
 H        -1.103276         3.168406         2.338375
 H        -0.504083         4.547290         0.191465
 H         0.134858         2.972184         0.624195
 H        -2.196660         1.709137        -2.054190
