19
Iteration:   435charge 0 multiplicity 1
 O        -0.526964         0.239282         0.412736
 C        -1.800747         0.836109         0.336119
 C        -3.291140         0.364214         0.001975
 C        -3.389971         1.912243        -0.116350
 C        -2.463987         1.950010         1.208440
 C        -1.785081         3.278018         1.451106
 C        -0.743028         3.512598         0.156262
 O        -1.282263         2.968106        -0.963464
 C        -2.070600         1.835958        -0.883464
 H        -0.309898        -0.023399        -0.467697
 H        -3.322138        -0.189242        -0.935340
 H        -3.814604        -0.194851         0.774355
 H        -4.295997         2.479647        -0.151339
 H        -3.069813         1.731982         2.110338
 H        -2.560940         4.031109         1.443942
 H        -1.166306         3.444583         2.286335
 H        -0.601573         4.670339        -0.051822
 H         0.127258         2.926043         0.549120
 H        -2.094848         1.259085        -1.884621
