19
Iteration:  3468
 O        -0.658255         0.030880         0.460607
 C        -1.791339         0.871770         0.277397
 C        -3.115639         0.328416        -0.138020
 C        -3.388853         1.833007        -0.203143
 C        -2.486760         1.860807         1.202482
 C        -1.638103         3.174378         1.563806
 C        -0.910355         3.664264         0.304143
 O        -1.314676         3.152635        -0.934793
 C        -2.065495         1.996051        -0.986900
 H         0.010766         0.595884        -0.049520
 H        -3.230750        -0.213308        -1.088546
 H        -3.678923        -0.162167         0.608728
 H        -4.255546         2.220184        -0.567787
 H        -2.979119         1.495456         2.089573
 H        -2.295158         3.891568         2.050159
 H        -0.897317         2.695023         2.299384
 H        -1.010226         4.734277         0.102048
 H         0.152127         3.437071         0.498002
 H        -2.089873         1.349049        -1.883118
