19
Iteration:  4477charge 0 multiplicity 1
 O        -0.593459         0.204215         0.495559
 C        -1.754418         0.838612         0.130649
 C        -3.144919         0.324916        -0.240384
 C        -3.338888         1.821978        -0.082107
 C        -2.449994         1.743970         1.167569
 C        -1.894561         3.211735         1.493769
 C        -0.795682         3.488536         0.421370
 O        -1.309971         3.237233        -0.877061
 C        -2.050011         2.019408        -0.922410
 H        -0.289331        -0.075636        -0.450435
 H        -3.262281        -0.063421        -1.286055
 H        -3.559099        -0.462519         0.408042
 H        -4.286453         2.292514        -0.265048
 H        -2.842843         1.250591         2.029442
 H        -2.760044         3.852052         1.314492
 H        -1.651747         3.197534         2.539674
 H        -0.417831         4.520765         0.323366
 H         0.137152         2.899179         0.565835
 H        -2.064275         1.868727        -1.980206
