19
Iteration:  3907charge 0 multiplicity 1
 O        -0.622789         0.165236         0.493407
 C        -1.854613         0.815407         0.159342
 C        -3.221183         0.306655        -0.167869
 C        -3.405509         1.844714        -0.060594
 C        -2.486530         1.856441         1.206430
 C        -1.622784         3.162753         1.487633
 C        -0.908247         3.730583         0.294311
 O        -1.154968         3.052835        -0.964722
 C        -2.146338         1.888431        -0.944191
 H         0.008726         0.908120         0.234716
 H        -3.268130        -0.175763        -1.128226
 H        -3.576897        -0.442035         0.604619
 H        -4.342069         2.469662        -0.208957
 H        -2.907794         1.496018         2.123445
 H        -2.421215         3.839584         1.877839
 H        -1.004759         3.041278         2.442185
 H        -0.881133         4.759888         0.091136
 H         0.104257         3.506736         0.493775
 H        -2.120015         1.565172        -1.984499
