19
Iteration:   562charge 0 multiplicity 1
 O        -0.655782         0.187945         0.471758
 C        -1.810406         0.926641         0.198791
 C        -3.293953         0.345900         0.131717
 C        -3.378414         1.852425        -0.029945
 C        -2.389191         1.933002         1.152475
 C        -1.778506         3.208035         1.445462
 C        -0.919213         3.619622         0.199922
 O        -1.087225         2.931624        -1.076815
 C        -2.056959         1.883084        -0.963086
 H        -0.097500         0.052779        -0.367933
 H        -3.661751        -0.313402        -0.657801
 H        -3.663275         0.072429         1.186883
 H        -4.342347         2.490145        -0.193256
 H        -2.868782         1.653934         2.093655
 H        -2.471707         4.041545         1.667714
 H        -1.106212         3.072637         2.320508
 H        -0.902806         4.629252         0.050904
 H         0.160775         3.407446         0.553208
 H        -2.228234         1.474489        -1.894774
