19
Iteration:  3451
 O        -0.649388         0.120576         0.379428
 C        -1.764566         0.873914         0.208679
 C        -3.157249         0.268940        -0.106200
 C        -3.355195         1.855647        -0.130156
 C        -2.586174         1.971775         1.158335
 C        -1.700776         3.076937         1.520033
 C        -0.823127         3.643930         0.316016
 O        -1.344894         3.158778        -0.972483
 C        -2.003731         1.894711        -0.887832
 H         0.194603         0.480669         0.706165
 H        -3.120952        -0.290644        -1.060618
 H        -3.637482        -0.299969         0.766135
 H        -4.327902         2.531535        -0.179796
 H        -3.089751         1.426718         2.000321
 H        -2.317429         3.950733         1.917278
 H        -1.007974         2.756606         2.246396
 H        -0.942914         4.754874         0.359230
 H         0.238715         3.309744         0.441581
 H        -1.992250         1.603570        -1.955298
