19
Iteration:  2050
 O        -0.629477         0.215413         0.380981
 C        -1.806225         0.804661         0.274454
 C        -3.187145         0.357578        -0.097680
 C        -3.323676         1.897894        -0.002206
 C        -2.408534         1.910068         1.215489
 C        -1.681134         3.127894         1.404632
 C        -0.916942         3.660318         0.223654
 O        -1.289939         3.064490        -1.017204
 C        -2.026211         1.876324        -0.895525
 H        -0.464659        -0.355575         1.216893
 H        -3.445160        -0.151364        -1.027307
 H        -3.816065        -0.127565         0.657335
 H        -4.230464         2.475725        -0.057964
 H        -2.940035         1.418667         2.122513
 H        -2.503049         3.854888         1.763940
 H        -1.003223         2.960680         2.215328
 H        -1.218452         4.736730         0.038407
 H         0.208547         3.535186         0.423520
 H        -2.267134         1.285242        -1.949652
