19
Iteration:  4151
 O        -0.671600         0.132436         0.312574
 C        -1.757489         0.960117         0.259704
 C        -3.032885         0.304460        -0.068349
 C        -3.385632         1.817473        -0.158325
 C        -2.575585         1.941893         1.180039
 C        -1.803243         3.182748         1.542067
 C        -0.804766         3.499145         0.350183
 O        -1.311800         3.145933        -0.969339
 C        -2.012662         1.926813        -0.902580
 H         0.104063         0.658561         0.468612
 H        -3.205107        -0.291193        -0.976704
 H        -3.660714        -0.154758         0.673301
 H        -4.379284         2.210288        -0.379161
 H        -3.077271         1.579744         2.063953
 H        -2.568634         3.986585         1.717805
 H        -1.151957         3.041994         2.483571
 H        -0.482209         4.510591         0.079901
 H         0.089319         2.741428         0.548522
 H        -2.065398         1.398615        -1.903087
