19
Iteration:  2094charge 0 multiplicity 1
 O        -0.594891         0.265803         0.450772
 C        -1.828473         0.870301         0.240735
 C        -3.170184         0.259015         0.017175
 C        -3.348877         1.819742        -0.114954
 C        -2.516164         1.896408         1.104721
 C        -1.617417         3.128715         1.416612
 C        -0.762881         3.526407         0.241207
 O        -1.421203         3.205896        -0.962943
 C        -2.071964         1.953006        -0.951502
 H        -0.779586        -0.339626         1.253703
 H        -3.267529        -0.292812        -0.923978
 H        -3.585649        -0.364185         0.801110
 H        -4.326325         2.276944        -0.084397
 H        -3.008624         1.610142         2.081150
 H        -2.358988         3.922351         1.813397
 H        -0.916765         2.989012         2.213234
 H        -0.543364         4.635866         0.183728
 H         0.204621         2.947480         0.150600
 H        -1.966945         1.361526        -2.042955
