19
Iteration:  3190charge 0 multiplicity 1
 O        -0.581455         0.177964         0.326222
 C        -1.761668         0.889137         0.141061
 C        -3.248416         0.250942        -0.025028
 C        -3.395743         1.857700        -0.037845
 C        -2.424003         1.896611         1.212909
 C        -1.805401         3.266084         1.408266
 C        -0.737666         3.441136         0.344647
 O        -1.372971         3.186435        -0.935257
 C        -2.078655         1.888723        -0.920271
 H         0.062186         0.824677         0.736398
 H        -3.342563        -0.306735        -0.902140
 H        -3.547286        -0.353605         0.831526
 H        -4.310288         2.493287        -0.241375
 H        -2.752578         1.386822         2.081767
 H        -2.397979         4.203266         1.473159
 H        -1.272689         3.052071         2.373268
 H        -0.382295         4.434140         0.106647
 H         0.139680         2.715597         0.424235
 H        -2.108465         1.562614        -1.923039
