19
Iteration:  1476
 O        -0.619966         0.243773         0.382459
 C        -1.823965         0.891056         0.124852
 C        -3.127952         0.272960        -0.028227
 C        -3.480924         1.857428        -0.012162
 C        -2.484902         1.941734         1.241278
 C        -1.742052         3.233794         1.495533
 C        -0.757056         3.583881         0.334472
 O        -1.180963         2.983357        -1.013859
 C        -2.121402         1.950776        -0.958244
 H        -0.817064        -0.720747         0.100450
 H        -3.337876        -0.366249        -0.902489
 H        -3.521823        -0.211631         0.881592
 H        -4.484141         2.292721        -0.123681
 H        -2.735545         1.486900         2.233481
 H        -2.507001         4.081844         1.404992
 H        -1.242751         3.309019         2.378647
 H        -0.815253         4.550935        -0.095827
 H         0.275089         3.305625         0.609037
 H        -2.129289         1.587305        -2.049698
