19
Iteration:  1790charge 0 multiplicity 1
 O        -0.682370         0.045766         0.454232
 C        -1.788896         0.905798         0.194780
 C        -3.188614         0.310829        -0.019649
 C        -3.388675         1.755477        -0.010715
 C        -2.364039         1.903168         1.211745
 C        -1.781227         3.234220         1.407266
 C        -0.818485         3.609667         0.258711
 O        -1.289937         3.126955        -1.045340
 C        -2.070228         1.971819        -0.916197
 H         0.105943         0.487346         0.172199
 H        -3.550503        -0.135083        -1.006757
 H        -3.625430        -0.207428         0.904902
 H        -4.244574         2.326927        -0.361187
 H        -2.758064         1.572483         2.190951
 H        -2.469280         4.003856         1.595218
 H        -1.087957         3.174528         2.345282
 H        -0.560617         4.743182         0.296236
 H         0.150672         3.092348         0.389913
 H        -2.200980         1.605630        -1.877102
