19
Iteration:  1825charge 0 multiplicity 1
 O        -0.687628        -0.139144         0.248180
 C        -1.699068         0.862716         0.276684
 C        -3.180966         0.362545         0.002567
 C        -3.308738         1.826807        -0.049721
 C        -2.355317         2.005214         1.237884
 C        -1.811744         3.381076         1.398355
 C        -0.863321         3.683046         0.299767
 O        -1.390310         3.091713        -0.965129
 C        -1.989989         1.870942        -0.881664
 H        -0.054359         0.026191         0.904482
 H        -3.498270        -0.138680        -0.960564
 H        -3.623539        -0.144436         0.882670
 H        -4.227366         2.380412        -0.552913
 H        -2.793564         1.522304         2.115760
 H        -2.718597         3.901386         1.519055
 H        -1.236579         3.460515         2.393877
 H        -0.812525         4.787426        -0.022824
 H         0.142415         3.217205         0.438441
 H        -2.017907         1.554879        -1.952746
