19
Iteration:  2631
 O        -0.516434         0.177504         0.463633
 C        -1.713965         0.836055         0.161516
 C        -3.237549         0.376927        -0.124232
 C        -3.409337         1.830405        -0.098667
 C        -2.420191         1.798799         1.198657
 C        -1.741423         3.187391         1.429776
 C        -0.738269         3.550696         0.312306
 O        -1.426654         3.175472        -0.958447
 C        -2.128864         1.988800        -0.958892
 H        -0.513081        -0.178525         1.319951
 H        -3.432611        -0.204759        -1.121953
 H        -3.659701        -0.147209         0.765005
 H        -4.276467         2.491308        -0.151021
 H        -2.953005         1.320764         2.005392
 H        -2.539847         3.945440         1.580027
 H        -1.189481         3.002465         2.447159
 H        -0.380707         4.602767         0.210042
 H         0.160636         2.928909         0.481121
 H        -2.046239         1.494022        -1.966106
