19
Iteration:  1250
 O        -0.693716         0.070725         0.532706
 C        -1.787501         0.893634         0.232668
 C        -3.111087         0.262154        -0.071965
 C        -3.291309         1.837586        -0.104475
 C        -2.444572         1.941205         1.194667
 C        -1.639581         3.210372         1.427998
 C        -0.752217         3.628875         0.197339
 O        -1.476988         3.225225        -0.985490
 C        -2.068120         1.905901        -0.924891
 H        -0.955895        -0.836117         0.418214
 H        -3.153720        -0.139711        -1.084096
 H        -3.502358        -0.305879         0.747741
 H        -4.231722         2.359666        -0.292645
 H        -2.904122         1.716105         2.136289
 H        -2.439693         3.838848         1.775001
 H        -1.025681         3.101108         2.403340
 H        -0.545903         4.655542         0.129774
 H         0.139801         2.901115         0.179728
 H        -2.115944         1.551115        -1.878796
