19
Iteration:   438
 O        -0.537442         0.270049         0.420013
 C        -1.814341         0.842008         0.353519
 C        -3.290726         0.370943        -0.004428
 C        -3.388438         1.903085        -0.122358
 C        -2.463238         1.944312         1.224369
 C        -1.786505         3.263202         1.437185
 C        -0.730945         3.492766         0.141660
 O        -1.303815         2.988922        -0.947341
 C        -2.053329         1.816976        -0.898685
 H        -0.304604        -0.155982        -0.467679
 H        -3.335980        -0.174986        -1.010186
 H        -3.835357        -0.263176         0.679970
 H        -4.263860         2.469574        -0.161662
 H        -2.975317         1.803418         2.164576
 H        -2.527612         4.055292         1.486822
 H        -1.036351         3.400575         2.235164
 H        -0.657273         4.649915        -0.081602
 H         0.173654         2.919708         0.595141
 H        -2.040681         1.277765        -1.866697
