19
Iteration:  4765charge 0 multiplicity 1
 O        -0.536125         0.276639         0.403696
 C        -1.757548         0.850079         0.201518
 C        -3.144709         0.271506        -0.366068
 C        -3.310016         1.782581        -0.232617
 C        -2.532594         1.758361         1.158844
 C        -1.869611         3.152845         1.589589
 C        -0.862979         3.455936         0.575713
 O        -1.304310         3.297413        -0.806272
 C        -2.047490         2.066310        -0.995911
 H        -0.417321        -0.549227        -0.144394
 H        -3.096544        -0.155874        -1.391106
 H        -3.643539        -0.364026         0.397436
 H        -4.139349         2.416950        -0.513581
 H        -3.086726         1.303012         1.960255
 H        -2.625111         3.957448         1.574980
 H        -1.418065         3.036043         2.588316
 H        -0.616671         4.500766         0.699291
 H         0.056389         2.789448         0.740164
 H        -1.860187         1.569465        -1.932211
