19
Iteration:  3444
 O        -0.629039         0.148192         0.361910
 C        -1.761072         0.832772         0.191473
 C        -3.164993         0.257397        -0.108736
 C        -3.398053         1.859056        -0.104513
 C        -2.556999         1.936332         1.161217
 C        -1.676021         3.140285         1.506095
 C        -0.856189         3.568092         0.326001
 O        -1.322125         3.209957        -0.961559
 C        -1.996413         1.918044        -0.904227
 H        -0.022464         0.523569         0.964144
 H        -3.524317        -0.242993        -1.071116
 H        -3.512968        -0.343979         0.764484
 H        -4.239290         2.416284        -0.499982
 H        -2.991609         1.584139         2.111993
 H        -2.351090         3.891089         1.811949
 H        -1.038763         2.779900         2.369067
 H        -0.891384         4.632950         0.269756
 H         0.155807         3.286010         0.578169
 H        -2.046212         1.326437        -1.814597
