19
Iteration:  2248charge 0 multiplicity 1
 O        -0.558404         0.076459         0.513395
 C        -1.728777         0.825108         0.210965
 C        -3.173716         0.276250        -0.095117
 C        -3.412334         1.878720        -0.109886
 C        -2.361512         1.885135         1.149048
 C        -1.682645         3.226122         1.470218
 C        -0.794395         3.550326         0.287452
 O        -1.446879         3.217748        -1.012087
 C        -2.140743         1.978608        -0.954453
 H        -0.815146        -0.486179         1.271565
 H        -3.357942        -0.275043        -1.038117
 H        -3.732758        -0.421567         0.513414
 H        -4.233504         2.521377        -0.053250
 H        -2.738119         1.439700         2.116122
 H        -2.427143         4.171827         1.595835
 H        -1.165471         3.171093         2.394614
 H        -0.621178         4.677275         0.325074
 H         0.231045         3.162825         0.146082
 H        -2.120766         1.616676        -2.090155
