19
Iteration:  2775charge 0 multiplicity 1
 O        -0.634425         0.146390         0.457674
 C        -1.747186         0.849326         0.246920
 C        -3.096281         0.328882        -0.010370
 C        -3.305087         1.862245        -0.162976
 C        -2.491120         1.876183         1.126458
 C        -1.693949         3.082666         1.446293
 C        -0.762676         3.591942         0.251144
 O        -1.499384         3.254579        -0.898667
 C        -2.004691         1.960555        -0.930880
 H        -0.849755        -0.843561         0.437914
 H        -3.160350        -0.243254        -0.992005
 H        -3.727006        -0.266998         0.719358
 H        -4.319294         2.335770        -0.350877
 H        -3.041372         1.576309         1.967641
 H        -2.455143         3.868981         1.568595
 H        -1.192523         3.045221         2.450907
 H        -0.693839         4.656894         0.188548
 H         0.177139         3.059072         0.130508
 H        -1.980034         1.510741        -1.954909
