19
Iteration:  3230charge 0 multiplicity 1
 O        -0.616420         0.060980         0.340650
 C        -1.752528         0.929228         0.157901
 C        -3.118122         0.317198        -0.138274
 C        -3.400008         1.799121         0.058504
 C        -2.468269         1.903788         1.229622
 C        -1.772395         3.282512         1.411543
 C        -0.801543         3.514389         0.281326
 O        -1.336223         3.133561        -0.985844
 C        -2.131258         1.947304        -0.870387
 H        -0.142272         0.471289         1.052786
 H        -3.239699        -0.070934        -1.249519
 H        -3.417061        -0.436601         0.692876
 H        -4.197291         2.477696         0.080712
 H        -2.740722         1.398467         2.211280
 H        -2.585721         4.029120         1.466745
 H        -1.160928         3.398530         2.295622
 H        -0.313303         4.533845         0.298046
 H         0.067190         2.883235         0.522061
 H        -2.299309         1.602257        -1.913586
