19
Iteration:  2136charge 0 multiplicity 1
 O        -0.523916         0.233808         0.372034
 C        -1.790744         0.916034         0.204746
 C        -3.134070         0.213382        -0.078242
 C        -3.402246         1.859671         0.018762
 C        -2.486164         1.962470         1.197727
 C        -1.786617         3.297046         1.378449
 C        -0.750240         3.392342         0.263975
 O        -1.402915         3.122047        -0.941288
 C        -2.078151         1.919913        -0.928839
 H        -0.519564        -0.506387         0.950564
 H        -3.250207        -0.282128        -1.045381
 H        -3.597967        -0.480979         0.638225
 H        -4.251550         2.586766        -0.064049
 H        -2.980703         1.654565         2.175632
 H        -2.397366         4.270903         1.520108
 H        -1.283259         3.296741         2.343333
 H        -0.139333         4.289611         0.145012
 H        -0.049059         2.588309         0.546957
 H        -2.159178         1.889944        -2.081118
