19
Iteration:  4005
 O        -0.564681         0.252408         0.494980
 C        -1.751861         0.876681         0.240073
 C        -3.066108         0.328863        -0.203413
 C        -3.470004         1.794549        -0.085308
 C        -2.467293         1.837028         1.257428
 C        -1.817511         3.226671         1.517629
 C        -0.718924         3.444965         0.297806
 O        -1.350794         3.210500        -1.031321
 C        -2.116177         1.968347        -0.938613
 H        -0.556993        -0.733983         0.271078
 H        -3.220153        -0.036307        -1.175466
 H        -3.661303        -0.357545         0.435139
 H        -4.438108         2.330881        -0.245110
 H        -2.987844         1.455843         2.149667
 H        -2.572924         4.059042         1.684175
 H        -1.153499         3.122019         2.433080
 H        -0.238820         4.417211         0.196001
 H         0.060741         2.633414         0.464763
 H        -2.282080         1.715507        -1.952323
