19
Iteration:  2984
 O        -0.621873         0.163968         0.373736
 C        -1.795453         0.901022         0.200867
 C        -3.138552         0.254058        -0.119823
 C        -3.420050         1.857817        -0.090949
 C        -2.440697         1.974215         1.113400
 C        -1.650760         3.216994         1.548387
 C        -0.781466         3.578348         0.290285
 O        -1.399334         3.068322        -0.915202
 C        -2.113982         1.909273        -0.944691
 H        -0.234839         0.297669         1.196957
 H        -3.025814        -0.326616        -1.054026
 H        -3.734429        -0.296891         0.685479
 H        -4.428930         2.144972        -0.253685
 H        -2.777137         1.431470         2.004228
 H        -2.234586         3.990628         1.914833
 H        -0.847045         3.050540         2.268465
 H        -0.829439         4.624750         0.298565
 H         0.197848         3.149696         0.349831
 H        -2.255687         1.643075        -2.018182
