19
Iteration:  1186charge 0 multiplicity 1
 O        -0.548404         0.200439         0.580688
 C        -1.786717         0.864528         0.167200
 C        -3.362426         0.357116        -0.061726
 C        -3.358624         1.890765        -0.117639
 C        -2.385439         1.900273         1.243610
 C        -1.614803         3.095802         1.491479
 C        -0.908627         3.582297         0.251570
 O        -1.300749         3.068922        -1.029039
 C        -2.091131         1.888334        -0.983010
 H         0.047915         0.247305        -0.144676
 H        -3.640988        -0.131471        -0.997753
 H        -3.849847        -0.093314         0.774616
 H        -4.278326         2.433738        -0.349759
 H        -2.936438         1.483499         2.090243
 H        -2.297220         3.935934         1.787021
 H        -0.952575         3.118073         2.332612
 H        -0.954011         4.679993         0.163529
 H         0.160279         3.290629         0.387209
 H        -2.212239         1.498369        -2.057227
