19
Iteration:  3155
 O        -0.634371         0.120588         0.398690
 C        -1.806300         0.898251         0.255614
 C        -3.164026         0.233030        -0.040309
 C        -3.411125         1.869218        -0.127250
 C        -2.462410         1.886301         1.228375
 C        -1.722714         3.207831         1.494060
 C        -0.791225         3.542391         0.265298
 O        -1.399671         3.182051        -1.005616
 C        -2.037183         1.942472        -0.928479
 H         0.175044         0.520851        -0.043286
 H        -3.155046        -0.425800        -0.925034
 H        -3.650160        -0.241050         0.839311
 H        -4.214389         2.413934        -0.510875
 H        -2.868214         1.526264         2.121351
 H        -2.200894         4.065771         2.041440
 H        -1.002515         2.846293         2.220415
 H        -0.613106         4.644480         0.382467
 H         0.244798         3.096696         0.400340
 H        -2.038104         1.482589        -1.880006
