19
Iteration:  3835charge 0 multiplicity 1
 O        -0.740060        -0.119990         0.388425
 C        -1.784917         0.847152         0.239150
 C        -3.118868         0.282958        -0.058992
 C        -3.337579         1.856071        -0.140582
 C        -2.393989         1.934837         1.185844
 C        -1.729856         3.293862         1.429738
 C        -0.927117         3.740265         0.328124
 O        -1.398178         3.177921        -0.913662
 C        -1.922528         1.885565        -0.933597
 H         0.085336         0.258596         0.662601
 H        -3.150764        -0.130620        -1.067922
 H        -3.626943        -0.385812         0.666804
 H        -4.269270         2.296114        -0.419231
 H        -2.925471         1.556255         2.125465
 H        -2.510347         3.932103         1.821878
 H        -1.000590         3.347333         2.227587
 H        -0.715586         4.811749         0.201401
 H         0.125719         3.385920         0.324551
 H        -1.827188         1.630035        -2.030375
