19
Iteration:  1664
 O        -0.622423         0.023500         0.369223
 C        -1.747609         0.852360         0.258818
 C        -3.213276         0.279342        -0.044446
 C        -3.293944         1.901797        -0.051908
 C        -2.356916         1.889474         1.236530
 C        -1.805873         3.298579         1.409679
 C        -0.846207         3.652559         0.239912
 O        -1.328802         3.123808        -0.953519
 C        -2.063981         1.975352        -0.933727
 H        -0.718680        -0.898061         0.468589
 H        -3.226315        -0.257146        -1.008704
 H        -3.670145        -0.267411         0.787572
 H        -4.288900         2.489431        -0.142499
 H        -2.777699         1.456002         2.166578
 H        -2.805143         3.978103         1.448605
 H        -1.286296         3.509822         2.280391
 H        -0.690167         4.669801         0.050336
 H         0.086202         3.107360         0.541762
 H        -2.060509         1.390785        -1.919038
