19
Iteration:  1247
 O        -0.700607         0.059230         0.540242
 C        -1.775326         0.918101         0.260160
 C        -3.094088         0.250193        -0.087996
 C        -3.313972         1.834025        -0.138347
 C        -2.430717         1.946049         1.188245
 C        -1.631349         3.197024         1.455429
 C        -0.725186         3.669994         0.178943
 O        -1.474052         3.212254        -0.987830
 C        -2.121729         1.908341        -0.909226
 H        -0.892080        -0.866777         0.407808
 H        -3.076192        -0.141957        -1.126787
 H        -3.607338        -0.338850         0.718829
 H        -4.273620         2.308244        -0.208143
 H        -3.029166         1.686394         2.094121
 H        -2.379257         3.903300         1.799870
 H        -0.967796         3.004992         2.437577
 H        -0.494820         4.720736         0.094325
 H         0.116494         2.945188         0.200094
 H        -2.092754         1.484581        -1.916382
