19
Iteration:  2146
 O        -0.541563         0.263366         0.336622
 C        -1.767553         0.879517         0.194349
 C        -3.136477         0.233172        -0.089185
 C        -3.412188         1.863249         0.016057
 C        -2.501721         1.926472         1.236162
 C        -1.803080         3.320636         1.386030
 C        -0.725508         3.409479         0.301657
 O        -1.307990         3.109835        -0.971294
 C        -2.142127         1.949369        -0.894616
 H        -0.794489        -0.485963         0.931131
 H        -3.253586        -0.275495        -1.055947
 H        -3.479564        -0.275680         0.835772
 H        -4.328326         2.431503        -0.312270
 H        -2.742512         1.437840         2.226513
 H        -2.592334         4.131657         1.262231
 H        -1.283361         3.299187         2.356071
 H        -0.384847         4.432529         0.258824
 H         0.099745         2.716972         0.341590
 H        -2.375589         1.368804        -1.794858
