19
Iteration:  2667charge 0 multiplicity 1
 O        -0.558883         0.224423         0.291602
 C        -1.758284         0.967740         0.251318
 C        -3.090245         0.338136        -0.082252
 C        -3.423091         1.769862        -0.095919
 C        -2.548239         1.920555         1.197940
 C        -1.789858         3.280489         1.491794
 C        -0.699663         3.425318         0.350637
 O        -1.383384         3.149973        -0.948281
 C        -2.098879         1.908765        -0.928018
 H        -0.845967        -0.640287         0.525701
 H        -3.153475        -0.242760        -1.031508
 H        -3.445393        -0.329931         0.769251
 H        -4.465918         2.268943        -0.315058
 H        -2.908023         1.551973         2.221662
 H        -2.525448         4.148075         1.612018
 H        -1.255340         3.230792         2.465554
 H        -0.249241         4.357833         0.109358
 H         0.107375         2.673107         0.581706
 H        -1.879743         1.399423        -1.957916
