19
Iteration:  3846charge 0 multiplicity 1
 O        -0.713804        -0.135524         0.353018
 C        -1.724167         0.884467         0.281326
 C        -3.194195         0.312099        -0.125832
 C        -3.293713         1.759694        -0.146228
 C        -2.430399         1.987737         1.187267
 C        -1.692944         3.262491         1.509911
 C        -0.921099         3.748711         0.238019
 O        -1.384013         3.187066        -0.908925
 C        -1.950395         1.893742        -0.899918
 H         0.077933         0.297381         0.846092
 H        -3.227793        -0.281819        -1.045988
 H        -3.720780        -0.177055         0.723986
 H        -4.118843         2.419972        -0.271392
 H        -3.117884         1.623259         2.024601
 H        -2.387623         4.077624         1.611757
 H        -1.062723         3.074987         2.371690
 H        -1.202188         4.826470         0.143228
 H         0.137915         3.478688         0.563122
 H        -1.929360         1.365500        -1.906284
