19
Iteration:  4079charge 0 multiplicity 1
 O        -0.615087         0.142049         0.410021
 C        -1.769790         0.851316         0.184008
 C        -3.094910         0.358551        -0.220976
 C        -3.337763         1.889560        -0.034032
 C        -2.431837         1.873323         1.174973
 C        -1.785024         3.171209         1.541088
 C        -0.847365         3.593639         0.323692
 O        -1.352963         3.093449        -0.986490
 C        -2.103563         1.957975        -0.899997
 H        -0.541267         0.078422         1.401150
 H        -3.159880         0.008544        -1.267090
 H        -3.483062        -0.425183         0.460568
 H        -4.331293         2.335704        -0.223785
 H        -2.904702         1.321994         2.040530
 H        -2.483810         3.967944         1.744140
 H        -1.112964         3.095618         2.351479
 H        -0.582198         4.653727         0.121004
 H         0.065344         2.977546         0.394853
 H        -2.130968         1.598228        -1.924135
