19
Iteration:  4058
 O        -0.546702         0.219299         0.360209
 C        -1.777625         0.895669         0.223534
 C        -3.270490         0.203538        -0.137917
 C        -3.433535         1.750898        -0.185826
 C        -2.535221         1.934780         1.205473
 C        -1.662013         3.137573         1.513802
 C        -0.816680         3.598960         0.361014
 O        -1.352179         3.218744        -0.935672
 C        -1.968290         1.907536        -0.940867
 H        -0.636428        -0.241936         1.252381
 H        -3.415711        -0.364163        -1.052156
 H        -3.861781        -0.185626         0.705645
 H        -4.295249         2.434367        -0.390661
 H        -2.937797         1.446888         2.140601
 H        -2.205702         4.065544         1.766433
 H        -1.013409         2.924720         2.329907
 H        -0.728523         4.702327         0.325722
 H         0.269507         3.149029         0.315021
 H        -1.822284         1.643388        -1.958118
