19
Iteration:  4878charge 0 multiplicity 1
 O        -0.697894         0.130378         0.487805
 C        -1.737593         0.912669         0.082579
 C        -3.047702         0.280180        -0.438082
 C        -3.353343         1.791077        -0.124091
 C        -2.487516         1.723846         1.147945
 C        -1.907429         3.041933         1.570561
 C        -0.811793         3.559197         0.564480
 O        -1.352645         3.321504        -0.807489
 C        -1.976123         2.084401        -0.927462
 H         0.092652         0.063737         0.032340
 H        -2.827757         0.043728        -1.478805
 H        -3.477877        -0.450729         0.246614
 H        -4.290419         2.240629        -0.465849
 H        -2.923536         1.111202         1.975935
 H        -2.705901         3.802607         1.441887
 H        -1.488137         3.127115         2.602957
 H        -0.746910         4.657914         0.465848
 H         0.190070         3.145124         0.512377
 H        -1.758534         2.038373        -2.012915
