19
Iteration:  2846charge 0 multiplicity 1
 O        -0.559593         0.280719         0.384860
 C        -1.846783         0.863471         0.230996
 C        -3.188978         0.269781        -0.046022
 C        -3.431714         1.732280        -0.052309
 C        -2.491383         1.922176         1.172184
 C        -1.785370         3.206610         1.426863
 C        -0.693538         3.472955         0.357907
 O        -1.270301         3.148319        -0.961185
 C        -2.100274         1.972586        -0.916658
 H        -0.190525         0.172830        -0.561707
 H        -3.283163        -0.313804        -0.971538
 H        -3.698474        -0.197215         0.768328
 H        -4.388026         2.265231        -0.112688
 H        -2.936139         1.357108         2.077024
 H        -2.509568         4.116445         1.469047
 H        -1.332530         3.231390         2.425114
 H        -0.444494         4.549432         0.250106
 H         0.059595         2.754573         0.487083
 H        -2.135072         1.651541        -1.976070
