19
Iteration:  2608charge 0 multiplicity 1
 O        -0.655350         0.181054         0.419444
 C        -1.786145         0.813515         0.162720
 C        -3.163235         0.258040        -0.157291
 C        -3.377146         1.858382        -0.036247
 C        -2.465476         1.936658         1.236605
 C        -1.634050         3.179604         1.541475
 C        -0.857908         3.554173         0.246512
 O        -1.353662         3.184645        -0.977682
 C        -2.062875         1.920176        -0.979205
 H        -0.385500         0.131725         1.405777
 H        -3.199018        -0.148844        -1.232217
 H        -3.597265        -0.453780         0.556907
 H        -4.222072         2.385008        -0.325469
 H        -2.808981         1.413334         2.090634
 H        -2.367420         3.928380         1.865478
 H        -0.956354         2.934336         2.471262
 H        -0.771156         4.684952         0.115787
 H         0.140833         3.218531         0.501738
 H        -2.126697         1.537791        -1.994872
