19
Iteration:  1071charge 0 multiplicity 1
 O        -0.662562         0.125578         0.463710
 C        -1.728892         0.893481         0.208828
 C        -3.291353         0.257320        -0.107120
 C        -3.340872         1.781380        -0.078327
 C        -2.486493         1.975061         1.240945
 C        -1.585335         3.217796         1.491669
 C        -0.785144         3.588830         0.197475
 O        -1.382482         3.117603        -1.027385
 C        -2.091429         1.947735        -0.932146
 H        -0.225972         0.406722         1.232122
 H        -3.329219        -0.183232        -1.128511
 H        -3.747058        -0.484245         0.622137
 H        -4.300344         2.310222        -0.209162
 H        -3.035094         1.630135         2.126421
 H        -2.206763         4.053003         1.965982
 H        -0.767500         2.820745         2.369524
 H        -0.669693         4.717221         0.060619
 H         0.313624         3.151177         0.277464
 H        -2.198337         1.473645        -1.855768
