19
Iteration:  2052charge 0 multiplicity 1
 O        -0.626665         0.220730         0.390649
 C        -1.801851         0.808141         0.268124
 C        -3.179809         0.352659        -0.104074
 C        -3.326568         1.914458         0.000898
 C        -2.404913         1.895809         1.221661
 C        -1.674060         3.130560         1.409720
 C        -0.915736         3.655983         0.204646
 O        -1.300075         3.057739        -1.004337
 C        -2.033827         1.876417        -0.901323
 H        -0.494754        -0.329286         1.210171
 H        -3.450921        -0.148738        -1.083297
 H        -3.812039        -0.152306         0.668944
 H        -4.255092         2.479760        -0.047416
 H        -3.040083         1.413410         2.054107
 H        -2.458723         3.891198         1.728403
 H        -0.978760         2.929224         2.246328
 H        -1.214723         4.773081         0.042914
 H         0.192115         3.496166         0.401583
 H        -2.206603         1.311335        -1.900387
