19
Iteration:  4438
 O        -0.559519         0.176431         0.232497
 C        -1.758170         0.854680         0.155894
 C        -3.025366         0.297064        -0.096681
 C        -3.332212         1.844503        -0.174570
 C        -2.666181         1.973757         1.168130
 C        -1.888327         3.156025         1.573028
 C        -0.775599         3.533757         0.438556
 O        -1.365198         3.114017        -0.819873
 C        -1.991410         1.923738        -1.005469
 H        -0.026009         0.524960         0.890761
 H        -3.247605        -0.204907        -1.023736
 H        -3.604891        -0.069911         0.749436
 H        -4.202782         2.392865        -0.609211
 H        -3.324242         1.505121         2.039891
 H        -2.463251         4.042370         1.926719
 H        -1.219693         2.869599         2.453402
 H        -0.386284         4.568969         0.355333
 H         0.063232         2.825463         0.710849
 H        -2.142581         1.620982        -2.104052
