19
Iteration:   845charge 0 multiplicity 1
 O        -0.698176         0.218391         0.612236
 C        -1.778458         0.930032         0.299359
 C        -3.169134         0.323167        -0.088463
 C        -3.375712         1.806084        -0.054183
 C        -2.510037         1.988166         1.211944
 C        -1.607774         3.102470         1.403987
 C        -0.763549         3.534825         0.186800
 O        -1.440702         3.180055        -1.037570
 C        -2.018312         1.871735        -0.959964
 H        -0.482749        -0.420095        -0.174688
 H        -3.170052        -0.049760        -1.077277
 H        -3.563498        -0.412189         0.614125
 H        -4.308384         2.349360        -0.336673
 H        -2.833798         1.616632         2.167911
 H        -2.139052         3.990787         1.841686
 H        -0.893055         2.663297         2.216551
 H        -0.441086         4.509470         0.083259
 H         0.254165         2.981863         0.219237
 H        -2.130610         1.454113        -2.028926
