19
Iteration:  1874
 O        -0.540496         0.202183         0.421466
 C        -1.813627         0.843266         0.174147
 C        -3.215508         0.330800        -0.035028
 C        -3.461236         1.845685        -0.009566
 C        -2.406520         1.855522         1.179062
 C        -1.709054         3.202400         1.392428
 C        -0.769553         3.563800         0.234972
 O        -1.317907         3.114640        -0.989603
 C        -2.109047         1.918602        -0.914260
 H        -0.658294         0.016821         1.413036
 H        -3.315175        -0.157129        -0.966660
 H        -3.734322        -0.065898         0.838431
 H        -4.348616         2.409841         0.031336
 H        -2.852913         1.258343         1.989895
 H        -2.473955         4.043315         1.532692
 H        -1.150208         3.166644         2.284353
 H        -0.640869         4.604947         0.184319
 H         0.202578         3.061303         0.216357
 H        -2.071574         1.598069        -1.997251
