19
Iteration:   556charge 0 multiplicity 1
 O        -0.659342         0.163084         0.503520
 C        -1.798622         0.912311         0.191885
 C        -3.273542         0.351559         0.134563
 C        -3.384084         1.831721        -0.055973
 C        -2.442979         1.950412         1.186671
 C        -1.732757         3.238804         1.408280
 C        -0.908645         3.609871         0.239514
 O        -1.125719         2.960594        -1.117112
 C        -2.028241         1.888854        -0.969368
 H        -0.156221         0.012088        -0.308799
 H        -3.604717        -0.351099        -0.649576
 H        -3.761240         0.123887         1.050470
 H        -4.240580         2.414884        -0.145215
 H        -2.777066         1.445997         2.132911
 H        -2.415753         4.038167         1.794008
 H        -1.034711         3.038498         2.227884
 H        -0.865344         4.779898         0.206846
 H         0.061868         3.367141         0.577482
 H        -2.408957         1.469914        -1.994220
