19
Iteration:  4982
 O        -0.509680         0.179901         0.327032
 C        -1.698181         0.908568         0.119602
 C        -3.084192         0.353490        -0.458683
 C        -3.373137         1.855254        -0.139292
 C        -2.523586         1.736633         1.145283
 C        -2.000486         3.091082         1.522788
 C        -0.902980         3.435428         0.542138
 O        -1.320414         3.290197        -0.756566
 C        -1.924288         2.018124        -0.850982
 H        -0.396566        -0.065033         1.289242
 H        -3.065271         0.026092        -1.472468
 H        -3.666551        -0.420067         0.013449
 H        -4.349002         2.440484        -0.189461
 H        -2.823364         0.998722         1.919967
 H        -2.671494         3.933174         1.388907
 H        -1.720885         3.151088         2.554241
 H        -0.587947         4.503656         0.493822
 H         0.040749         2.848941         0.879159
 H        -1.986581         2.010632        -1.871422
