19
Iteration:   103charge 0 multiplicity 1
 O        -0.724631         0.102820         0.698418
 C        -1.826783         0.786672         0.299737
 C        -3.279150         0.298086         0.011967
 C        -3.321757         1.831150        -0.033573
 C        -2.360681         1.887485         1.137991
 C        -1.491120         3.194691         1.396669
 C        -0.995296         3.887187         0.078612
 O        -1.242987         3.030644        -1.068858
 C        -2.034608         1.908212        -0.984285
 H        -0.820788        -0.783264         0.227800
 H        -3.472360        -0.122733        -0.973272
 H        -3.886185        -0.129981         0.780337
 H        -4.304298         2.547948        -0.159363
 H        -2.743391         1.493158         2.021414
 H        -2.033064         3.895320         2.039284
 H        -0.651985         2.861850         1.956209
 H        -1.477272         4.797527        -0.085308
 H         0.139013         3.998388         0.022408
 H        -2.146517         1.507280        -2.075102
