19
Iteration:  2772charge 0 multiplicity 1
 O        -0.652040         0.143628         0.447182
 C        -1.718924         0.863734         0.275292
 C        -3.104010         0.308021        -0.021342
 C        -3.315542         1.862682        -0.166959
 C        -2.467449         1.887740         1.142918
 C        -1.707722         3.084451         1.438227
 C        -0.768418         3.594043         0.254333
 O        -1.489050         3.248759        -0.898894
 C        -2.018863         1.942221        -0.934592
 H        -0.897607        -0.740363         0.423576
 H        -3.182288        -0.228904        -1.013567
 H        -3.675601        -0.278340         0.687979
 H        -4.344811         2.293107        -0.381360
 H        -3.119901         1.540156         2.011647
 H        -2.394281         3.894685         1.566231
 H        -1.132342         3.030642         2.423333
 H        -0.687535         4.780194         0.223550
 H         0.232698         3.029549         0.126643
 H        -1.925689         1.620833        -1.985875
