19
Iteration:  3106charge 0 multiplicity 1
 O        -0.605806         0.139868         0.538217
 C        -1.714063         0.839344         0.176673
 C        -3.252769         0.353214        -0.114324
 C        -3.256143         1.891557        -0.024301
 C        -2.334097         1.828882         1.163595
 C        -1.714273         3.175885         1.516582
 C        -0.968185         3.621322         0.239546
 O        -1.382343         3.155463        -1.006482
 C        -2.066273         1.921288        -0.958400
 H        -0.346318        -0.475195        -0.152975
 H        -3.428530        -0.059423        -1.178912
 H        -3.687065        -0.295326         0.672367
 H        -4.257600         2.462933        -0.090589
 H        -2.853647         1.446384         2.146712
 H        -2.376800         3.977301         1.685661
 H        -1.180269         3.128187         2.487911
 H        -0.562474         4.628624         0.208043
 H        -0.059961         3.018994         0.459239
 H        -2.361046         1.593907        -2.029504
