19
Iteration:  2598charge 0 multiplicity 1
 O        -0.641709         0.148553         0.373413
 C        -1.839605         0.871673         0.226711
 C        -3.119696         0.296319        -0.127087
 C        -3.354378         1.835853        -0.120720
 C        -2.489697         1.808264         1.254863
 C        -1.696046         3.166857         1.501923
 C        -0.820400         3.672880         0.263956
 O        -1.353706         3.122964        -0.992755
 C        -2.064441         1.960620        -0.893453
 H        -0.367166         0.185050         1.341578
 H        -3.286555        -0.224526        -1.162277
 H        -3.587862        -0.247114         0.719406
 H        -4.231279         2.443528        -0.242724
 H        -3.154746         1.467778         2.055764
 H        -2.219677         4.019628         1.982181
 H        -0.770367         2.850208         2.153935
 H        -0.608042         4.775206         0.209661
 H         0.178598         3.208497         0.218833
 H        -2.016392         1.552880        -1.943225
