19
Iteration:  4003
 O        -0.578701         0.250131         0.494571
 C        -1.750822         0.866578         0.257255
 C        -3.061881         0.323869        -0.204064
 C        -3.448134         1.788166        -0.068499
 C        -2.470615         1.836859         1.261728
 C        -1.831123         3.212107         1.489162
 C        -0.712485         3.452145         0.280921
 O        -1.350880         3.208845        -1.017886
 C        -2.122931         1.993167        -0.944729
 H        -0.582908        -0.647665         0.241253
 H        -3.151737        -0.087410        -1.215874
 H        -3.688604        -0.347150         0.377972
 H        -4.406176         2.357524        -0.203156
 H        -2.955114         1.404486         2.195644
 H        -2.533441         4.082954         1.644780
 H        -1.220703         3.177461         2.388296
 H        -0.186670         4.469275         0.257979
 H         0.108950         2.594253         0.487443
 H        -2.328508         1.714965        -1.955313
