19
Iteration:  3380charge 0 multiplicity 1
 O        -0.522186         0.212224         0.300927
 C        -1.815474         0.922800         0.300847
 C        -3.074019         0.217314        -0.124766
 C        -3.443739         1.784807        -0.041369
 C        -2.548645         1.917862         1.189884
 C        -1.801368         3.340479         1.488492
 C        -0.736294         3.407341         0.362367
 O        -1.312614         3.197967        -0.982636
 C        -2.101225         1.955440        -0.895572
 H        -0.799412        -0.707561         0.199108
 H        -3.228981        -0.237098        -1.091505
 H        -3.531066        -0.257316         0.686584
 H        -4.360670         2.245038        -0.295511
 H        -2.987899         1.544736         2.125596
 H        -2.459309         4.225314         1.374307
 H        -1.362815         3.213303         2.551635
 H        -0.264020         4.395866         0.266868
 H         0.039745         2.560562         0.417992
 H        -2.031991         1.638537        -1.981651
