19
Iteration:  2309charge 0 multiplicity 1
 O        -0.514980         0.360889         0.331750
 C        -1.766929         0.912642         0.151280
 C        -3.191909         0.250768        -0.022721
 C        -3.404797         1.802192        -0.069297
 C        -2.571846         1.967476         1.171364
 C        -1.729703         3.272824         1.452871
 C        -0.728237         3.380472         0.289359
 O        -1.370848         3.073819        -0.888169
 C        -2.074297         1.905434        -0.949534
 H        -0.490067        -0.516643         0.818837
 H        -3.361155        -0.156432        -1.023659
 H        -3.713002        -0.058161         0.911051
 H        -4.407504         2.381849        -0.147088
 H        -3.010939         1.382853         1.977801
 H        -2.246601         4.140596         1.723129
 H        -1.130353         2.862207         2.339261
 H        -0.484631         4.434682         0.092960
 H         0.119783         2.790727         0.606751
 H        -2.084065         1.616831        -1.977225
