19
Iteration:   204charge 0 multiplicity 1
 O        -0.667094        -0.015349         0.411829
 C        -1.757494         0.879888         0.287292
 C        -3.218037         0.346332         0.037924
 C        -3.294335         1.908193         0.014065
 C        -2.462031         1.959822         1.312010
 C        -1.831335         3.407993         1.422096
 C        -0.817316         3.561753         0.160679
 O        -1.276723         3.026796        -1.159613
 C        -2.046359         1.850151        -0.896364
 H         0.120233         0.493087         0.500124
 H        -3.311822        -0.055515        -0.908607
 H        -3.682034        -0.266168         0.864951
 H        -4.201684         2.535534        -0.146399
 H        -2.797337         1.480050         2.158574
 H        -2.661432         4.140269         1.395077
 H        -1.297040         3.571980         2.345464
 H        -0.310248         4.452126        -0.057085
 H         0.063507         2.857061         0.364765
 H        -2.296510         1.356196        -1.903612
