19
Iteration:   446charge 0 multiplicity 1
 O        -0.565876         0.325319         0.458996
 C        -1.854424         0.884214         0.319544
 C        -3.281845         0.326385        -0.049921
 C        -3.365515         1.849922        -0.081971
 C        -2.469551         1.961445         1.262735
 C        -1.698526         3.274267         1.360120
 C        -0.755952         3.458711         0.232981
 O        -1.356700         3.020707        -1.000116
 C        -2.022216         1.793174        -0.882249
 H        -0.458236        -0.364132        -0.251808
 H        -3.358452        -0.062181        -1.060397
 H        -3.898661        -0.215198         0.654731
 H        -4.205039         2.467661        -0.341603
 H        -2.877062         1.546643         2.211410
 H        -2.384250         4.085150         1.578616
 H        -1.099083         3.139126         2.242762
 H        -0.507339         4.589555         0.012571
 H         0.294716         3.064419         0.333600
 H        -1.966429         1.364111        -1.944327
