19
Iteration:  2994
 O        -0.594639         0.213076         0.366828
 C        -1.776672         0.907450         0.164907
 C        -3.154875         0.298789        -0.112163
 C        -3.431848         1.777958        -0.113926
 C        -2.447658         1.898073         1.220986
 C        -1.643305         3.243699         1.495490
 C        -0.787026         3.563148         0.326043
 O        -1.354414         3.065184        -0.921647
 C        -2.167963         1.930380        -0.986450
 H        -0.321819         0.440943         1.241070
 H        -3.544551        -0.043441        -1.043869
 H        -3.694368        -0.186106         0.755808
 H        -4.428175         2.114318        -0.232543
 H        -2.778606         1.325866         2.159909
 H        -2.284948         3.996048         1.783613
 H        -1.111198         3.000388         2.449107
 H        -0.500057         4.597195         0.123740
 H         0.160643         3.096636         0.365981
 H        -1.997409         1.498462        -1.967540
