19
Iteration:  1840charge 0 multiplicity 1
 O        -0.681604        -0.069493         0.266358
 C        -1.781663         0.825676         0.207546
 C        -3.140207         0.345037         0.007698
 C        -3.307832         1.885379        -0.020551
 C        -2.397704         1.903281         1.226434
 C        -1.820632         3.375961         1.478794
 C        -0.902108         3.679173         0.197721
 O        -1.332941         3.147483        -0.987858
 C        -1.974036         1.833260        -0.878901
 H        -0.208174        -0.038068         1.109947
 H        -3.162428        -0.208549        -0.884165
 H        -3.691084        -0.205654         0.710203
 H        -4.272357         2.427576         0.053658
 H        -2.787172         1.533837         2.175762
 H        -2.552354         4.251507         1.481291
 H        -1.214006         3.461790         2.301539
 H        -0.612803         4.661220         0.095515
 H         0.050831         3.140691         0.499765
 H        -2.026220         1.274842        -1.929901
