19
Iteration:  2277charge 0 multiplicity 1
 O        -0.588790         0.264457         0.461178
 C        -1.778119         0.943688         0.215143
 C        -3.147512         0.266572        -0.099924
 C        -3.384615         1.812387        -0.120959
 C        -2.523985         1.878391         1.286543
 C        -1.650150         3.199812         1.494083
 C        -0.734705         3.398515         0.219311
 O        -1.463147         3.221869        -1.017790
 C        -2.039254         1.938153        -0.946063
 H        -0.735137        -0.543398         0.879172
 H        -3.334535        -0.356613        -1.078962
 H        -3.767122        -0.321643         0.699118
 H        -4.373358         2.394994        -0.125409
 H        -3.004303         1.278597         2.099497
 H        -2.198268         4.127086         1.620346
 H        -1.094178         3.090438         2.487364
 H        -0.533841         4.494443         0.204604
 H         0.282155         2.907805         0.225791
 H        -1.908195         1.634362        -1.982264
