19
Iteration:  1088charge 0 multiplicity 1
 O        -0.681241         0.069173         0.355936
 C        -1.836294         0.896805         0.264614
 C        -3.083660         0.301062        -0.048870
 C        -3.452832         1.861203        -0.005314
 C        -2.464444         1.937709         1.217753
 C        -1.691224         3.245556         1.369797
 C        -0.715453         3.511760         0.248168
 O        -1.368471         3.158569        -1.004011
 C        -2.057942         1.926094        -0.881709
 H        -0.079115         0.282794         1.045972
 H        -3.115028        -0.304742        -0.977273
 H        -3.628318        -0.179043         0.768779
 H        -4.362321         2.392475        -0.285332
 H        -2.870253         1.494600         2.147719
 H        -2.453290         4.023903         1.500369
 H        -1.234425         3.268064         2.278166
 H        -0.528253         4.581040         0.196636
 H         0.140071         2.931787         0.357754
 H        -2.052699         1.428113        -1.937616
