19
Iteration:   338charge 0 multiplicity 1
 O        -0.623058         0.225639         0.591978
 C        -1.802045         0.939248         0.256308
 C        -3.191443         0.302432         0.089363
 C        -3.390855         1.833375        -0.127270
 C        -2.431372         1.962586         1.187732
 C        -1.613615         3.160762         1.439403
 C        -0.805439         3.473328         0.149374
 O        -1.374997         3.133233        -1.050182
 C        -2.091156         1.894591        -1.028044
 H        -0.955346        -0.651907         0.366953
 H        -3.177991        -0.225311        -0.884194
 H        -3.718508        -0.087054         0.940906
 H        -4.252046         2.285769        -0.421816
 H        -2.925730         1.648542         2.078689
 H        -2.269602         4.024035         1.652986
 H        -0.920063         3.129899         2.299416
 H        -0.521945         4.612252         0.107712
 H         0.243461         3.060177         0.309425
 H        -2.218947         1.397946        -2.014512
