19
Iteration:  1848
 O        -0.657648        -0.039641         0.284875
 C        -1.766541         0.854473         0.244681
 C        -3.179700         0.266223        -0.024269
 C        -3.306548         1.844796         0.007638
 C        -2.393084         1.935808         1.257473
 C        -1.813954         3.352860         1.444520
 C        -0.863015         3.631902         0.263552
 O        -1.319475         3.125825        -1.055082
 C        -2.023890         1.926043        -0.896066
 H        -0.326488         0.016826         1.222407
 H        -3.305021        -0.297691        -0.971824
 H        -3.653197        -0.211501         0.825661
 H        -4.102997         2.703192        -0.012480
 H        -2.957436         1.476905         2.054159
 H        -2.594151         4.098526         1.519008
 H        -1.185031         3.399882         2.363310
 H        -0.787096         4.734917         0.109392
 H         0.119817         3.146879         0.306761
 H        -2.009438         1.526104        -1.968484
