19
Iteration:    70charge 0 multiplicity 1
 O        -0.772597        -0.178413         0.519043
 C        -1.761806         0.798380         0.360695
 C        -3.247683         0.408880         0.097769
 C        -3.219979         1.919871        -0.044482
 C        -2.407134         2.004233         1.211875
 C        -1.552473         3.321337         1.464152
 C        -1.237183         3.885433         0.017774
 O        -1.131424         2.940227        -1.054043
 C        -1.927066         1.829491        -0.933872
 H        -0.451075        -0.256562        -0.380491
 H        -3.486556        -0.113968        -0.841355
 H        -3.882194         0.033767         0.854041
 H        -4.170973         2.657428        -0.287240
 H        -2.923314         1.705302         2.053783
 H        -2.092699         4.025110         2.102419
 H        -0.679822         2.989802         1.968284
 H        -1.946148         4.607124        -0.216141
 H        -0.256672         4.467017        -0.034576
 H        -1.993408         1.391485        -2.031310
