19
Iteration:  4085charge 0 multiplicity 1
 O        -0.600735         0.112376         0.416619
 C        -1.764880         0.854357         0.175680
 C        -3.069868         0.318658        -0.221738
 C        -3.401300         1.923083        -0.057734
 C        -2.402285         1.861333         1.230123
 C        -1.757645         3.140883         1.506500
 C        -0.893816         3.572480         0.341902
 O        -1.338272         3.110524        -1.019835
 C        -2.098706         1.984014        -0.890245
 H        -0.521673         0.140298         1.446378
 H        -3.214907         0.049577        -1.304330
 H        -3.626763        -0.235124         0.544316
 H        -4.326151         2.488217        -0.124565
 H        -2.759164         1.351835         2.101587
 H        -2.592996         3.929887         1.456840
 H        -1.250057         3.318972         2.570587
 H        -0.576950         4.620072         0.292794
 H         0.048214         2.982213         0.351999
 H        -2.087938         1.652346        -1.999798
