19
Iteration:  2914charge 0 multiplicity 1
 O        -0.706718         0.014984         0.384563
 C        -1.731079         0.873876         0.146559
 C        -3.110855         0.281764        -0.117042
 C        -3.413261         1.757675        -0.011398
 C        -2.409687         1.888634         1.205333
 C        -1.723734         3.314659         1.476670
 C        -0.788938         3.594677         0.255911
 O        -1.340667         3.174366        -0.957667
 C        -2.077381         1.970605        -0.924880
 H        -0.267644         0.485921         1.055574
 H        -3.173830        -0.246709        -1.068615
 H        -3.518532        -0.327637         0.667632
 H        -4.442586         2.270696        -0.046119
 H        -2.680346         1.442787         2.267772
 H        -2.538957         4.073453         1.575693
 H        -1.286951         3.157205         2.503498
 H        -0.737806         4.735563         0.117851
 H         0.141265         3.111159         0.406650
 H        -2.274216         1.805679        -1.986574
