19
Iteration:  2729charge 0 multiplicity 1
 O        -0.515828         0.180252         0.426466
 C        -1.786064         0.906453         0.205379
 C        -3.190163         0.333140        -0.138949
 C        -3.310892         1.867517        -0.032341
 C        -2.422755         1.853984         1.228408
 C        -1.804395         3.204856         1.402835
 C        -0.813403         3.511137         0.322814
 O        -1.315915         3.156637        -0.953446
 C        -2.134885         1.927693        -0.963814
 H        -0.771609        -0.731585         0.412468
 H        -3.485734        -0.185965        -1.101751
 H        -3.587393        -0.251775         0.700896
 H        -4.204305         2.543774        -0.107148
 H        -2.863009         1.407693         2.106516
 H        -2.571401         3.931319         1.569587
 H        -1.216219         3.234648         2.388640
 H        -0.815751         4.629871         0.274293
 H         0.162031         3.018422         0.530471
 H        -2.375162         1.488635        -1.931464
