19
Iteration:   807
 O        -0.653591        -0.070089         0.538819
 C        -1.747682         0.796397         0.188555
 C        -3.311947         0.342819         0.049626
 C        -3.284593         1.851817        -0.008103
 C        -2.316930         1.914174         1.154289
 C        -1.785315         3.284587         1.336643
 C        -0.800285         3.677346         0.244207
 O        -1.340442         3.176773        -1.007361
 C        -2.041896         1.898655        -0.954868
 H        -0.130778        -0.069798        -0.251247
 H        -3.491930        -0.023723        -1.008263
 H        -3.733236        -0.075229         0.985773
 H        -4.200876         2.403901        -0.167929
 H        -2.936811         1.479024         2.034207
 H        -2.678668         3.941134         1.384806
 H        -1.436555         3.433884         2.317520
 H        -0.517478         4.812006         0.289878
 H         0.217384         3.281142         0.501595
 H        -2.315801         1.638152        -2.004807
