19
Iteration:  1500
 O        -0.579321         0.236636         0.379253
 C        -1.743710         0.865057         0.185194
 C        -3.200777         0.309751        -0.005461
 C        -3.379996         1.797602         0.006412
 C        -2.462228         1.930861         1.207166
 C        -1.882301         3.280819         1.362396
 C        -0.678471         3.432372         0.296049
 O        -1.275954         3.164083        -0.990259
 C        -2.113293         1.937553        -0.909191
 H        -0.783542        -0.746682         0.487213
 H        -3.498074        -0.165415        -0.987921
 H        -3.704697        -0.213283         0.851183
 H        -4.382113         2.308011        -0.237477
 H        -2.784307         1.479824         2.176733
 H        -2.619381         4.051942         1.433237
 H        -1.278344         3.251977         2.269005
 H        -0.241723         4.367228         0.111585
 H         0.067741         2.673908         0.624607
 H        -2.151781         1.669270        -1.960746
