19
Iteration:  1658charge 0 multiplicity 1
 O        -0.627273         0.012999         0.368597
 C        -1.765855         0.800840         0.227585
 C        -3.184879         0.320690        -0.004341
 C        -3.360932         1.853265        -0.084721
 C        -2.300735         1.929162         1.178396
 C        -1.827748         3.320796         1.487153
 C        -0.856016         3.695367         0.251525
 O        -1.275218         3.103624        -0.978570
 C        -2.105857         1.970189        -0.953021
 H        -0.783253        -0.930772         0.558625
 H        -3.388010        -0.277454        -0.926275
 H        -3.545138        -0.361435         0.814305
 H        -4.277306         2.332046        -0.158807
 H        -2.815974         1.472858         2.039172
 H        -2.665722         3.891784         1.543603
 H        -1.199158         3.603572         2.442033
 H        -0.671242         4.846160         0.266437
 H         0.056665         3.146815         0.515686
 H        -2.037720         1.455458        -1.867265
