19
Iteration:  3134
 O        -0.683913         0.105476         0.517917
 C        -1.766005         0.855245         0.194240
 C        -3.178904         0.300259        -0.144090
 C        -3.413005         1.792929        -0.016465
 C        -2.451316         1.842262         1.225878
 C        -1.648382         3.149335         1.425454
 C        -0.814696         3.655574         0.242680
 O        -1.346610         3.204280        -0.994885
 C        -2.077658         1.950985        -0.911353
 H         0.004091         0.161083        -0.097690
 H        -3.247369        -0.111899        -1.118832
 H        -3.453142        -0.427163         0.623466
 H        -4.422475         2.094629         0.004150
 H        -2.955667         1.570062         2.111320
 H        -2.192514         4.137086         1.590745
 H        -1.101717         2.997214         2.382434
 H        -0.672919         4.781435         0.210386
 H         0.298729         3.434420         0.315904
 H        -2.171879         1.572277        -1.878052
