19
Iteration:  3815charge 0 multiplicity 1
 O        -0.672311        -0.068970         0.501142
 C        -1.740448         0.918770         0.177666
 C        -3.159299         0.293656        -0.127368
 C        -3.292169         1.789480        -0.043668
 C        -2.410925         1.882858         1.209116
 C        -1.831618         3.210033         1.507858
 C        -0.828963         3.620741         0.284492
 O        -1.345405         3.229576        -1.035513
 C        -2.044646         1.977060        -0.952507
 H         0.155593         0.369588         0.406854
 H        -3.378906        -0.349124        -0.987780
 H        -3.588453        -0.086412         0.763599
 H        -4.128351         2.437432        -0.125552
 H        -3.079471         1.330288         1.903822
 H        -2.479112         4.139860         1.431424
 H        -1.314042         3.354320         2.474740
 H        -0.644712         4.719266         0.171287
 H         0.116282         3.224065         0.533229
 H        -2.276255         1.697493        -1.984261
