19
Iteration:  2732
 O        -0.521283         0.175351         0.431539
 C        -1.786702         0.883767         0.205644
 C        -3.167085         0.329522        -0.148896
 C        -3.311176         1.876718        -0.020942
 C        -2.429233         1.869977         1.224767
 C        -1.800160         3.210516         1.432912
 C        -0.797729         3.537025         0.303295
 O        -1.328000         3.153382        -0.960369
 C        -2.134984         1.916901        -0.964270
 H        -0.756682        -0.825878         0.427362
 H        -3.505756        -0.128152        -1.106978
 H        -3.583304        -0.302630         0.708313
 H        -4.273972         2.491109        -0.115642
 H        -2.939459         1.375838         2.030859
 H        -2.582173         3.986205         1.626515
 H        -1.239586         3.198873         2.398514
 H        -0.734584         4.584503         0.288688
 H         0.131321         3.053367         0.545474
 H        -2.388793         1.547148        -2.028693
