19
Iteration:  3977
 O        -0.606038         0.150632         0.528360
 C        -1.744534         0.874797         0.132897
 C        -3.117342         0.265910        -0.167659
 C        -3.464340         1.829830        -0.047451
 C        -2.385036         1.842072         1.216894
 C        -1.824744         3.231378         1.383972
 C        -0.710673         3.449887         0.337673
 O        -1.383653         3.250976        -0.935030
 C        -2.061815         1.992291        -0.887797
 H        -0.330703        -0.412035        -0.202092
 H        -3.524416        -0.155561        -1.149280
 H        -3.433042        -0.415794         0.644414
 H        -4.391722         2.368035        -0.148730
 H        -2.923142         1.513105         2.113011
 H        -2.565469         3.973304         1.081816
 H        -1.530028         3.628474         2.360371
 H        -0.390018         4.536759         0.377137
 H         0.211093         2.825464         0.491090
 H        -2.179885         1.609393        -1.970009
