19
Iteration:  2043
 O        -0.595803         0.160562         0.343600
 C        -1.826610         0.842439         0.276658
 C        -3.264754         0.353546        -0.038321
 C        -3.320055         1.832399        -0.037370
 C        -2.448801         1.888129         1.199349
 C        -1.714175         3.167554         1.429516
 C        -0.921536         3.684774         0.280727
 O        -1.244046         3.070767        -1.077362
 C        -2.019923         1.868604        -0.891812
 H        -0.503956        -0.385288         1.189525
 H        -3.336267        -0.178318        -1.050511
 H        -3.811720        -0.131472         0.810624
 H        -4.196419         2.481674        -0.217938
 H        -2.477241         1.593474         2.266946
 H        -2.481447         3.803419         1.858171
 H        -0.973240         3.122023         2.298838
 H        -1.116313         4.794342         0.099500
 H         0.152608         3.688534         0.411860
 H        -2.220767         1.583011        -1.858830
