19
Iteration:  3760charge 0 multiplicity 1
 O        -0.511297         0.265470         0.381961
 C        -1.868048         0.910717         0.191407
 C        -3.148592         0.257839        -0.050658
 C        -3.489739         1.780436        -0.149983
 C        -2.574017         2.028891         1.161015
 C        -1.761274         3.205332         1.471068
 C        -0.720813         3.378149         0.363938
 O        -1.298897         3.134065        -0.887915
 C        -2.089501         1.865948        -0.915900
 H        -0.028831         0.944366        -0.196501
 H        -3.247148        -0.195782        -1.037840
 H        -3.645496        -0.242766         0.765556
 H        -4.418294         2.145765        -0.504683
 H        -2.969164         1.487462         2.035727
 H        -2.322973         4.259277         1.584740
 H        -1.202132         3.025335         2.419805
 H        -0.383345         4.440127         0.282410
 H         0.297079         2.804505         0.542779
 H        -1.893058         1.537066        -1.937998
