19
Iteration:  3898
 O        -0.650304         0.140340         0.526767
 C        -1.820639         0.875164         0.100826
 C        -3.196842         0.301398        -0.143645
 C        -3.411192         1.902463        -0.053838
 C        -2.446932         1.795988         1.182312
 C        -1.671028         3.135089         1.537897
 C        -0.834043         3.767884         0.273262
 O        -1.221838         2.999010        -0.972373
 C        -2.095755         1.920613        -0.950318
 H         0.031432         0.889009         0.465188
 H        -3.333784        -0.077713        -1.163410
 H        -3.679665        -0.331335         0.702192
 H        -4.381931         2.356125        -0.337750
 H        -2.809043         1.216221         2.010009
 H        -2.425459         3.878107         1.695069
 H        -1.024369         3.076787         2.466938
 H        -1.147589         4.786518         0.046993
 H         0.267003         3.757823         0.551680
 H        -2.418555         1.551169        -1.958576
