19
Iteration:  4271charge 0 multiplicity 1
 O        -0.461048         0.105269         0.389180
 C        -1.771738         0.807662         0.176204
 C        -3.279753         0.301001        -0.179581
 C        -3.391074         1.844914        -0.066289
 C        -2.446889         1.843543         1.204044
 C        -1.824767         3.262765         1.449291
 C        -0.809184         3.543272         0.402194
 O        -1.336605         3.223030        -0.944444
 C        -2.052883         1.955554        -0.955122
 H        -0.307510         0.325691         1.362792
 H        -3.465031        -0.172524        -1.171851
 H        -3.733186        -0.338808         0.573123
 H        -4.248450         2.480201        -0.332049
 H        -2.884939         1.211877         2.049766
 H        -2.726254         3.865634         1.401816
 H        -1.207947         3.285763         2.385093
 H        -0.390340         4.570368         0.451466
 H         0.135634         2.934873         0.502151
 H        -2.086407         1.607269        -2.007202
