19
Iteration:  3016charge 0 multiplicity 1
 O        -0.537825         0.281959         0.320516
 C        -1.779084         0.855413         0.232271
 C        -3.256655         0.235776        -0.065320
 C        -3.370134         1.921289         0.020298
 C        -2.486237         1.855359         1.187460
 C        -1.809064         3.157414         1.386478
 C        -0.762090         3.426950         0.305543
 O        -1.318353         3.174556        -1.010588
 C        -2.057649         1.950441        -0.905401
 H        -0.213916         0.345941         1.288510
 H        -3.298238        -0.325290        -0.989289
 H        -3.787643        -0.219758         0.837552
 H        -4.281605         2.452232        -0.066776
 H        -2.797839         1.196103         2.103171
 H        -2.517577         3.884667         1.468036
 H        -1.287420         3.253762         2.395556
 H        -0.426700         4.452595         0.504937
 H         0.130317         2.873280         0.227451
 H        -2.164678         1.681341        -1.970296
