19
Iteration:   515charge 0 multiplicity 1
 O        -0.690070         0.099717         0.738593
 C        -1.790234         0.862295         0.329736
 C        -3.203367         0.304535        -0.137777
 C        -3.339673         1.838831        -0.105373
 C        -2.426243         1.930640         1.213291
 C        -1.586384         3.266870         1.350529
 C        -0.733591         3.506242         0.101713
 O        -1.606387         3.240412        -0.977790
 C        -2.002359         1.890858        -0.958172
 H        -0.439531        -0.475576         0.019396
 H        -3.082005        -0.142015        -1.157583
 H        -3.787348        -0.342825         0.526359
 H        -4.246217         2.350839        -0.426715
 H        -2.636435         1.538882         2.206321
 H        -2.120201         4.191831         1.503331
 H        -0.837821         3.215856         2.151058
 H        -0.158754         4.571064         0.021304
 H         0.283900         2.833692         0.103926
 H        -1.864044         1.345593        -1.927690
