19
Iteration:  4460
 O        -0.573456         0.149146         0.329954
 C        -1.793097         0.943327         0.203408
 C        -3.196290         0.209879        -0.206630
 C        -3.395183         1.760298        -0.211540
 C        -2.535812         1.884545         1.165031
 C        -1.829713         3.196857         1.498958
 C        -0.771983         3.498584         0.491627
 O        -1.329721         3.244441        -0.864540
 C        -1.996007         1.963672        -0.904597
 H         0.337251         0.571805        -0.062067
 H        -3.160966        -0.360917        -1.129550
 H        -3.699045        -0.269837         0.655953
 H        -4.349790         2.356706        -0.296464
 H        -2.934074         1.458976         2.180097
 H        -2.540047         4.060312         1.489034
 H        -1.241216         3.254297         2.471543
 H        -0.528475         4.550534         0.688104
 H         0.105221         2.873025         0.752927
 H        -1.921813         1.449172        -1.928421
