19
Iteration:  3047
 O        -0.540561         0.227848         0.290938
 C        -1.722665         0.941889         0.153800
 C        -3.191894         0.218294        -0.116123
 C        -3.430730         1.821294        -0.016694
 C        -2.488267         1.975295         1.225520
 C        -1.754574         3.373266         1.485396
 C        -0.768234         3.420071         0.347711
 O        -1.373991         3.113776        -0.931355
 C        -2.078660         1.885915        -0.915432
 H        -0.720507        -0.446646         0.935652
 H        -3.252169        -0.243533        -1.036605
 H        -3.532403        -0.448108         0.670104
 H        -4.330469         2.296237        -0.253358
 H        -2.707934         1.277278         2.116895
 H        -2.518792         4.186319         1.384847
 H        -1.342158         3.321591         2.532273
 H        -0.223807         4.384740         0.263980
 H         0.043230         2.692623         0.296182
 H        -2.157180         1.617069        -1.933256
