19
Iteration:  2467
 O        -0.490632         0.308745         0.408257
 C        -1.777787         0.875061         0.182222
 C        -3.234480         0.220912         0.030159
 C        -3.454708         1.824122        -0.126877
 C        -2.497635         1.885614         1.206516
 C        -1.705464         3.149595         1.421465
 C        -0.764586         3.466560         0.317909
 O        -1.321405         3.237404        -0.966721
 C        -2.133401         1.984196        -0.967436
 H        -0.561723        -0.704369         0.575235
 H        -3.301301        -0.305171        -0.927497
 H        -3.682435        -0.229233         0.871259
 H        -4.362927         2.206407        -0.418164
 H        -3.037546         1.441490         2.084165
 H        -2.263552         4.048766         1.567756
 H        -1.099555         3.080492         2.260562
 H        -0.221065         4.414348         0.439062
 H        -0.064124         2.654350         0.390896
 H        -2.189925         1.524278        -1.973203
