19
Iteration:  4860charge 0 multiplicity 1
 O        -0.609618         0.011980         0.407976
 C        -1.734667         0.863065         0.134544
 C        -3.001173         0.279178        -0.349430
 C        -3.304884         1.822409        -0.250779
 C        -2.537281         1.831877         1.108645
 C        -1.942946         3.109095         1.623131
 C        -0.921031         3.539352         0.565442
 O        -1.324634         3.345364        -0.829209
 C        -2.003477         2.086937        -0.950551
 H         0.072048         0.589573         0.167704
 H        -3.168633        -0.225788        -1.296248
 H        -3.454235        -0.252603         0.495723
 H        -4.183092         2.452379        -0.290375
 H        -3.002044         1.121496         1.820260
 H        -2.651276         3.879099         1.964247
 H        -1.244550         2.936608         2.432106
 H        -0.572064         4.527694         0.834939
 H        -0.095725         2.733512         0.779770
 H        -2.005564         1.866677        -2.036265
