19
Iteration:   189charge 0 multiplicity 1
 O        -0.700824         0.117461         0.494523
 C        -1.799891         0.901302         0.247429
 C        -3.168711         0.350390         0.061322
 C        -3.366865         1.896642        -0.016163
 C        -2.424517         1.997675         1.209283
 C        -1.716253         3.246139         1.397167
 C        -0.868952         3.511132         0.177155
 O        -1.243669         2.984461        -1.086071
 C        -2.070687         1.872936        -0.936426
 H         0.120404         0.556313         0.136547
 H        -3.438979        -0.327863        -0.808919
 H        -3.595003        -0.066022         0.934350
 H        -4.348358         2.515142        -0.264357
 H        -2.945044         1.651508         2.164180
 H        -2.364650         4.086588         1.579848
 H        -0.989485         3.178868         2.198299
 H        -0.959035         4.613864         0.029716
 H         0.197978         3.155964         0.423346
 H        -2.172903         1.407532        -1.901123
