19
Iteration:  2724charge 0 multiplicity 1
 O        -0.523704         0.214118         0.410052
 C        -1.754164         0.922740         0.187005
 C        -3.245374         0.327323        -0.107518
 C        -3.348120         1.852754        -0.050785
 C        -2.411706         1.826703         1.222124
 C        -1.792897         3.180872         1.389528
 C        -0.852747         3.481440         0.353047
 O        -1.306412         3.144681        -0.963811
 C        -2.090849         1.975891        -0.924277
 H        -0.820138        -0.778547         0.378175
 H        -3.303183        -0.207809        -1.029224
 H        -3.699460        -0.162979         0.763360
 H        -4.116582         2.585392        -0.119071
 H        -2.728969         1.428088         2.266955
 H        -2.653604         3.950230         1.385614
 H        -1.241215         3.295687         2.267826
 H        -0.762424         4.584302         0.255783
 H         0.159536         3.027013         0.472635
 H        -2.191521         1.457447        -1.908218
