19
Iteration:  1784charge 0 multiplicity 1
 O        -0.676462         0.100247         0.491680
 C        -1.727502         0.954095         0.174984
 C        -3.248956         0.290101        -0.061196
 C        -3.391195         1.774946        -0.032506
 C        -2.392076         1.890931         1.204755
 C        -1.712248         3.234169         1.422939
 C        -0.827096         3.548815         0.248333
 O        -1.303838         3.116351        -1.025790
 C        -2.098978         1.960503        -0.893065
 H         0.168888         0.457709         0.007711
 H        -3.317119        -0.165928        -1.026044
 H        -3.588147        -0.200086         0.794495
 H        -4.317831         2.452300        -0.117995
 H        -2.739536         1.478094         2.155368
 H        -2.424230         4.140237         1.587387
 H        -1.183450         3.173498         2.326748
 H        -0.672139         4.591225         0.199513
 H         0.169072         3.110058         0.476345
 H        -2.234594         1.376112        -1.923421
