19
Iteration:   116
 O        -0.668116         0.167161         0.758431
 C        -1.814846         0.881343         0.200336
 C        -3.229007         0.335517        -0.037201
 C        -3.319635         1.921094        -0.051738
 C        -2.436324         1.953346         1.245403
 C        -1.472017         3.080810         1.439334
 C        -0.998076         3.692212         0.117335
 O        -1.262063         3.027863        -1.167014
 C        -2.108203         1.901858        -1.033362
 H        -0.627723        -0.735634         0.499890
 H        -3.430848        -0.209056        -0.925600
 H        -3.609201        -0.231513         0.871258
 H        -4.368286         2.425492        -0.103620
 H        -2.890118         1.544676         2.143210
 H        -1.955075         3.926514         1.969847
 H        -0.611422         2.744817         2.048437
 H        -1.463816         4.649580         0.037508
 H         0.081390         3.853377         0.235170
 H        -2.297213         1.445407        -2.094361
