19
Iteration:  3162charge 0 multiplicity 1
 O        -0.598968         0.123074         0.382839
 C        -1.746087         0.888968         0.218733
 C        -3.194474         0.307809        -0.021453
 C        -3.362132         1.882697        -0.197900
 C        -2.453140         1.917622         1.231494
 C        -1.702043         3.201678         1.528179
 C        -0.835488         3.516509         0.322270
 O        -1.405731         3.168444        -0.971206
 C        -2.102978         1.879274        -0.932908
 H         0.123140         0.661327         0.074126
 H        -3.142385        -0.436674        -0.927170
 H        -3.593459        -0.202523         0.876129
 H        -4.387646         2.371063        -0.344824
 H        -3.098688         1.512384         2.122889
 H        -2.190041         4.142829         1.775831
 H        -1.027711         2.881438         2.341182
 H        -0.531678         4.545983         0.080583
 H         0.134778         3.021219         0.349593
 H        -2.058482         1.429994        -2.010011
