19
Iteration:  4665charge 0 multiplicity 1
 O        -0.584915         0.230432         0.386396
 C        -1.758907         0.848642         0.119323
 C        -3.141251         0.277494        -0.311600
 C        -3.322258         1.797957        -0.231547
 C        -2.501499         1.737912         1.190999
 C        -1.944588         3.170538         1.595574
 C        -0.798205         3.614026         0.535189
 O        -1.289614         3.203352        -0.870908
 C        -1.966522         2.040739        -0.900882
 H        -0.549514        -0.606666        -0.049599
 H        -3.237636        -0.166220        -1.357190
 H        -3.657561        -0.404317         0.428773
 H        -4.264299         2.400549        -0.253410
 H        -3.084598         1.329924         2.001385
 H        -2.779542         3.863882         1.828411
 H        -1.330516         3.022819         2.501422
 H        -0.699428         4.739563         0.620297
 H         0.313580         3.212889         0.656608
 H        -2.109323         1.554373        -1.883276
