19
Iteration:  2986charge 0 multiplicity 1
 O        -0.622271         0.173236         0.369149
 C        -1.781944         0.902795         0.201325
 C        -3.140794         0.260069        -0.118648
 C        -3.420986         1.852523        -0.094184
 C        -2.443502         1.964290         1.130995
 C        -1.647015         3.224143         1.535666
 C        -0.779519         3.580503         0.299707
 O        -1.396624         3.050396        -0.909993
 C        -2.129155         1.915588        -0.955167
 H        -0.234153         0.332788         1.248904
 H        -3.110832        -0.313316        -1.135799
 H        -3.742807        -0.232039         0.694150
 H        -4.493888         2.066560        -0.261978
 H        -2.708659         1.403966         1.966890
 H        -2.265679         4.040977         1.975347
 H        -0.888455         3.088586         2.291636
 H        -0.784389         4.646962         0.333567
 H         0.230133         3.090720         0.305108
 H        -2.184740         1.624000        -2.061648
