19
Iteration:  1798
 O        -0.691265        -0.021562         0.393624
 C        -1.797763         0.790896         0.228857
 C        -3.143268         0.293569         0.026754
 C        -3.368597         1.872152         0.000531
 C        -2.430399         1.911148         1.221159
 C        -1.774755         3.275139         1.397787
 C        -0.801661         3.668954         0.271045
 O        -1.286831         3.172653        -1.039274
 C        -2.041352         1.930970        -0.951247
 H         0.052064         0.525188         0.371797
 H        -3.476656        -0.293427        -0.854483
 H        -3.598796        -0.240591         0.918688
 H        -4.309736         2.233297        -0.259115
 H        -2.810967         1.382072         2.137877
 H        -2.719735         3.912315         1.594390
 H        -1.146611         3.305123         2.286975
 H        -0.631498         4.717053         0.090562
 H         0.133181         3.121398         0.431478
 H        -2.145007         1.726879        -2.024321
