19
Iteration:  4468charge 0 multiplicity 1
 O        -0.582747         0.172369         0.431275
 C        -1.780743         0.907531         0.185102
 C        -3.161991         0.237595        -0.255167
 C        -3.410975         1.771569        -0.140389
 C        -2.455766         1.819532         1.237617
 C        -1.866004         3.183219         1.433016
 C        -0.754858         3.531708         0.521021
 O        -1.333609         3.242443        -0.875033
 C        -2.008388         1.988115        -0.978656
 H        -0.014588         0.309183        -0.413794
 H        -3.249344        -0.268607        -1.248904
 H        -3.767015        -0.212692         0.565533
 H        -4.238621         2.451312        -0.250471
 H        -2.929663         1.277063         2.087029
 H        -2.632314         3.955820         1.440191
 H        -1.397930         3.300882         2.439626
 H        -0.423120         4.576590         0.517030
 H         0.030383         2.819697         0.667466
 H        -2.047220         1.611126        -2.022579
