19
Iteration:  4599charge 0 multiplicity 1
 O        -0.505997         0.209128         0.390914
 C        -1.757620         0.912084         0.101898
 C        -3.169990         0.320417        -0.372021
 C        -3.424928         1.786519        -0.083161
 C        -2.483159         1.782049         1.222014
 C        -1.895383         3.160172         1.456180
 C        -0.786452         3.472948         0.522589
 O        -1.301448         3.226955        -0.873048
 C        -2.061546         2.055926        -0.889762
 H        -0.619381        -0.236504         1.245300
 H        -3.047346        -0.055584        -1.421163
 H        -3.360665        -0.495299         0.353841
 H        -4.468885         2.157354        -0.115326
 H        -2.873420         1.145436         1.993875
 H        -2.637346         3.957873         1.327669
 H        -1.449128         3.238311         2.459202
 H        -0.482768         4.532788         0.464468
 H         0.169517         2.856084         0.578900
 H        -1.956327         1.776406        -1.962566
