19
Iteration:   254charge 0 multiplicity 1
 O        -0.700566         0.005105         0.407892
 C        -1.799717         0.896031         0.229303
 C        -3.171125         0.297770         0.106601
 C        -3.410042         1.772113        -0.039040
 C        -2.381162         2.008052         1.188640
 C        -1.744282         3.409761         1.358441
 C        -0.762844         3.493710         0.244511
 O        -1.282306         3.123372        -1.068885
 C        -2.087983         1.905003        -0.970327
 H        -0.154493         0.404673         1.123828
 H        -3.399107        -0.532910        -0.681013
 H        -3.538993        -0.005250         1.085190
 H        -4.506411         2.211075        -0.054189
 H        -2.879420         1.634021         2.198303
 H        -2.579529         4.157963         1.343528
 H        -1.140334         3.482329         2.335020
 H        -0.514793         4.556455        -0.007622
 H         0.172844         2.950682         0.425636
 H        -2.045350         1.417185        -1.916651
