19
Iteration:  2457charge 0 multiplicity 1
 O        -0.502778         0.334231         0.431484
 C        -1.821607         0.902634         0.269572
 C        -3.192754         0.281931        -0.116472
 C        -3.460698         1.772874        -0.072038
 C        -2.490772         1.878060         1.175415
 C        -1.656156         3.148399         1.478933
 C        -0.744549         3.450873         0.287443
 O        -1.349421         3.193685        -1.020206
 C        -2.121240         1.964527        -0.948958
 H        -0.737481        -0.645723         0.602566
 H        -3.354092        -0.408945        -0.913399
 H        -3.762283        -0.116490         0.666694
 H        -4.427317         2.258665         0.033992
 H        -3.027446         1.546514         2.121895
 H        -2.460455         3.863036         1.685301
 H        -1.099331         2.994406         2.324044
 H        -0.440484         4.509226         0.332777
 H         0.204825         2.881546         0.390784
 H        -1.999257         1.619103        -2.012692
