19
Iteration:   104charge 0 multiplicity 1
 O        -0.719343         0.107866         0.704388
 C        -1.832587         0.795366         0.293985
 C        -3.276647         0.298575         0.007952
 C        -3.314095         1.832706        -0.031127
 C        -2.371074         1.892346         1.146162
 C        -1.490544         3.183829         1.398046
 C        -0.993714         3.874698         0.087200
 O        -1.244731         3.030561        -1.074533
 C        -2.037539         1.912048        -0.999347
 H        -0.818603        -0.767225         0.255520
 H        -3.465614        -0.102863        -0.964601
 H        -3.883592        -0.157895         0.810936
 H        -4.297509         2.531168        -0.134919
 H        -2.759200         1.458177         2.022989
 H        -2.015058         3.920833         2.028817
 H        -0.629474         2.866580         1.967544
 H        -1.455761         4.793173        -0.103462
 H         0.118439         3.997101         0.017762
 H        -2.165621         1.494288        -2.100229
