19
Iteration:  4019
 O        -0.488888         0.261427         0.479001
 C        -1.775135         0.953738         0.144541
 C        -3.224448         0.278049        -0.146190
 C        -3.378977         1.834304        -0.124179
 C        -2.530289         1.942178         1.156235
 C        -1.680541         3.188672         1.562282
 C        -0.856353         3.435949         0.350188
 O        -1.388408         3.146098        -0.974346
 C        -2.047285         1.961898        -0.965376
 H        -0.736900        -0.630891         0.424810
 H        -3.258649        -0.266934        -1.113152
 H        -3.488922        -0.323357         0.742624
 H        -4.342236         2.242204        -0.372518
 H        -2.882881         1.348148         1.977419
 H        -2.363861         4.026684         1.784031
 H        -1.085554         3.068831         2.526419
 H        -0.484917         4.436373         0.377445
 H        -0.043772         2.819126         0.464883
 H        -1.954677         1.362677        -1.913569
