19
Iteration:  1596charge 0 multiplicity 1
 O        -0.519131         0.197422         0.409570
 C        -1.824684         0.852486         0.224624
 C        -3.359135         0.318242        -0.178723
 C        -3.325982         1.873759        -0.052298
 C        -2.453288         1.913533         1.269357
 C        -1.637134         3.191253         1.548902
 C        -0.887503         3.660069         0.208570
 O        -1.310887         3.027931        -1.005666
 C        -2.046793         1.820224        -0.927083
 H        -0.501927        -0.039080         1.357381
 H        -3.418132         0.064532        -1.225551
 H        -3.828923        -0.327424         0.530657
 H        -4.073488         2.699876        -0.177393
 H        -2.958235         1.511137         2.176551
 H        -2.343123         4.069250         1.942996
 H        -0.968966         2.899491         2.321525
 H        -1.096007         4.718157         0.059609
 H         0.181230         3.419238         0.149641
 H        -1.890845         1.544946        -2.018219
