19
Iteration:  4969
 O        -0.446833         0.204000         0.302048
 C        -1.782215         0.834710         0.136066
 C        -3.124852         0.277887        -0.466104
 C        -3.350700         1.769032        -0.201720
 C        -2.572584         1.746863         1.190783
 C        -1.953087         3.158069         1.555295
 C        -0.783910         3.509782         0.618759
 O        -1.330393         3.297799        -0.750891
 C        -2.000061         2.094166        -0.930045
 H        -0.579488        -0.276650         1.140884
 H        -3.037292         0.065078        -1.498684
 H        -3.598870        -0.398909         0.186650
 H        -4.237431         2.379191        -0.423056
 H        -3.171196         1.371266         2.049407
 H        -2.825427         3.808531         1.409555
 H        -1.598379         3.211755         2.554751
 H        -0.487113         4.497367         0.828505
 H         0.064670         2.762414         0.658185
 H        -1.873969         1.600558        -1.858570
