19
Iteration:  4851charge 0 multiplicity 1
 O        -0.551405         0.018518         0.342694
 C        -1.683525         0.836942         0.146668
 C        -3.092920         0.331933        -0.285183
 C        -3.298052         1.819886        -0.236842
 C        -2.582734         1.841095         1.079758
 C        -1.969011         3.109735         1.645351
 C        -0.921587         3.515156         0.584594
 O        -1.342821         3.328874        -0.821893
 C        -1.952147         2.082588        -0.954664
 H         0.218262         0.538864         0.401456
 H        -3.049044        -0.207679        -1.254645
 H        -3.718109        -0.149566         0.518039
 H        -4.244273         2.253535        -0.573707
 H        -3.107667         1.317430         1.891686
 H        -2.661126         3.884845         1.997629
 H        -1.351296         2.776950         2.520682
 H        -0.492536         4.508015         0.542272
 H        -0.053938         2.871524         0.619331
 H        -1.831099         1.928079        -2.046624
