19
Iteration:   962
 O        -0.675528        -0.076064         0.372352
 C        -1.741510         0.825004         0.280267
 C        -3.259455         0.370931         0.055773
 C        -3.272104         1.902078        -0.051389
 C        -2.339071         1.914582         1.182151
 C        -1.834908         3.294199         1.402510
 C        -0.925735         3.629135         0.282755
 O        -1.215953         3.096694        -1.021242
 C        -2.077618         1.916614        -0.956956
 H         0.170210         0.174720        -0.108516
 H        -3.475729        -0.237308        -0.835291
 H        -3.721188         0.092672         1.009201
 H        -4.123248         2.541554         0.110124
 H        -2.708346         1.500867         2.173255
 H        -2.767263         3.868434         1.352169
 H        -1.373841         3.456774         2.297054
 H        -0.849915         4.708607         0.157534
 H         0.076028         3.366435         0.566066
 H        -2.151871         1.680000        -1.978989
