19
Iteration:   389charge 0 multiplicity 1
 O        -0.697429        -0.017345         0.347073
 C        -1.770133         0.883156         0.280518
 C        -3.149244         0.265259         0.019758
 C        -3.404833         1.832861        -0.000653
 C        -2.415571         1.932040         1.191175
 C        -1.819724         3.424630         1.312389
 C        -0.710694         3.591589         0.281276
 O        -1.280158         3.048083        -1.041559
 C        -2.084821         1.947304        -0.880327
 H        -0.067307         0.219393         1.010994
 H        -3.371206        -0.314095        -0.843596
 H        -3.588845        -0.133837         0.972001
 H        -4.383126         2.456251        -0.117649
 H        -2.607389         1.613080         2.226366
 H        -2.594583         4.143328         1.028353
 H        -1.494388         3.677890         2.298511
 H        -0.467275         4.569653         0.035402
 H         0.146628         2.990020         0.634814
 H        -2.267432         1.481115        -1.886353
