19
Iteration:  1773
 O        -0.601113         0.220664         0.529213
 C        -1.772422         0.918535         0.227157
 C        -3.220391         0.292816        -0.129587
 C        -3.398469         1.911992        -0.020213
 C        -2.470240         1.886049         1.203037
 C        -1.662628         3.227339         1.471453
 C        -0.768496         3.484991         0.240658
 O        -1.377724         3.076198        -0.995723
 C        -2.111851         1.878843        -0.944798
 H         0.077887         0.243381        -0.170732
 H        -3.215932        -0.279025        -1.032910
 H        -3.644927        -0.333572         0.594451
 H        -4.396561         2.483787         0.029423
 H        -2.821761         1.284307         2.039631
 H        -2.489098         4.043490         1.557129
 H        -1.035536         3.231668         2.316350
 H        -0.640102         4.507257         0.047865
 H         0.233684         3.014140         0.327056
 H        -2.153154         1.575192        -2.104168
