19
Iteration:  1875
 O        -0.541300         0.212988         0.424100
 C        -1.812900         0.844175         0.176364
 C        -3.221023         0.319220        -0.040801
 C        -3.464370         1.847851        -0.005747
 C        -2.406176         1.859457         1.174626
 C        -1.705215         3.206532         1.391959
 C        -0.765892         3.553317         0.235861
 O        -1.326084         3.109891        -0.990773
 C        -2.101884         1.922404        -0.919770
 H        -0.681901         0.034372         1.379064
 H        -3.311018        -0.181496        -0.992647
 H        -3.735847        -0.080734         0.865035
 H        -4.312716         2.434813         0.047495
 H        -2.870879         1.244839         1.980829
 H        -2.480430         4.034459         1.563219
 H        -1.128951         3.154080         2.313352
 H        -0.624091         4.623625         0.184195
 H         0.212877         3.064102         0.230113
 H        -2.052264         1.596906        -1.957008
