19
Iteration:   149charge 0 multiplicity 1
 O        -0.622932         0.371305         0.648829
 C        -1.870695         0.851704         0.286911
 C        -3.336156         0.285760        -0.042571
 C        -3.374596         1.863911        -0.131954
 C        -2.519862         1.996165         1.247675
 C        -1.429902         3.077999         1.395374
 C        -0.856460         3.643770         0.127175
 O        -1.315098         3.026614        -1.058293
 C        -2.049730         1.767489        -0.952212
 H        -0.266945        -0.201620        -0.041810
 H        -3.455403        -0.268649        -0.921421
 H        -3.875236        -0.174409         0.855083
 H        -4.365474         2.406669        -0.329156
 H        -3.067528         1.843509         2.147048
 H        -1.768335         3.868221         2.093464
 H        -0.660829         2.534658         1.963248
 H        -1.101359         4.674292         0.109518
 H         0.231691         3.547703         0.236860
 H        -2.011755         1.291797        -2.016387
