19
Iteration:  4370charge 0 multiplicity 1
 O        -0.597579         0.121623         0.527402
 C        -1.709341         0.884431         0.166879
 C        -3.097739         0.355841        -0.238648
 C        -3.396104         1.808423        -0.129379
 C        -2.467498         1.842830         1.237186
 C        -1.798151         3.222498         1.508165
 C        -0.829295         3.545894         0.398770
 O        -1.356708         3.228908        -0.941903
 C        -2.089458         1.999070        -0.972225
 H        -0.361705        -0.419537        -0.356335
 H        -3.043500        -0.135671        -1.253222
 H        -3.569794        -0.362301         0.459311
 H        -4.459834         1.996012        -0.223292
 H        -2.846582         1.142136         2.096391
 H        -2.624173         3.958849         1.750826
 H        -1.243337         3.082217         2.510003
 H        -0.381374         4.537048         0.191153
 H        -0.018455         2.809362         0.550499
 H        -2.127953         1.614438        -2.029739
