19
Iteration:  4621
 O        -0.593361         0.178827         0.245423
 C        -1.757859         0.876596         0.155292
 C        -3.103162         0.228869        -0.255594
 C        -3.295469         1.787877        -0.169470
 C        -2.562406         1.870250         1.137175
 C        -1.904731         3.220896         1.557402
 C        -0.823047         3.484237         0.580477
 O        -1.324647         3.260453        -0.805458
 C        -2.003299         1.955816        -0.932443
 H         0.106950         0.601153         0.797534
 H        -3.227417        -0.362708        -1.199146
 H        -3.722130        -0.120274         0.624772
 H        -4.199191         2.370387        -0.460114
 H        -2.991017         1.295552         1.942996
 H        -2.632569         4.037327         1.453280
 H        -1.594851         3.058737         2.594606
 H        -0.261636         4.390586         0.338785
 H         0.039851         2.720733         0.686138
 H        -2.027155         1.616015        -1.989679
