19
Iteration:   207charge 0 multiplicity 1
 O        -0.661141        -0.035590         0.396720
 C        -1.753653         0.865924         0.299958
 C        -3.215071         0.362752         0.033149
 C        -3.312713         1.908414         0.019871
 C        -2.442686         1.954785         1.330324
 C        -1.859373         3.425301         1.400702
 C        -0.780854         3.571575         0.163683
 O        -1.290758         3.040683        -1.145564
 C        -2.051875         1.832601        -0.917945
 H         0.189638         0.450428         0.590639
 H        -3.321006        -0.132318        -0.988600
 H        -3.730059        -0.246301         0.823094
 H        -4.133108         2.482793        -0.115514
 H        -2.870654         1.483140         2.288968
 H        -2.702976         4.180249         1.332371
 H        -1.280285         3.635065         2.393858
 H        -0.213563         4.527792        -0.096719
 H        -0.042084         2.841493         0.374262
 H        -2.269254         1.357116        -1.877403
