19
Iteration:  2881charge 0 multiplicity 1
 O        -0.587639         0.142959         0.307761
 C        -1.748202         0.805284         0.206142
 C        -3.150002         0.351612        -0.031886
 C        -3.305898         1.824732        -0.038660
 C        -2.538863         1.959531         1.222629
 C        -1.850414         3.238087         1.490264
 C        -0.800810         3.427593         0.273583
 O        -1.360509         3.130187        -0.947463
 C        -2.033483         1.920060        -0.919126
 H         0.036924         0.883659         0.030467
 H        -3.271859        -0.269240        -0.926585
 H        -3.633004        -0.072359         0.814599
 H        -4.221321         2.517534        -0.225681
 H        -2.998503         1.498073         2.226175
 H        -2.496291         4.134108         1.342477
 H        -1.327972         3.296733         2.509379
 H        -0.348533         4.494525         0.347063
 H         0.152547         2.934618         0.346230
 H        -2.188481         1.607219        -1.960698
