19
Iteration:  4692charge 0 multiplicity 1
 O        -0.524065         0.154847         0.464011
 C        -1.695314         0.876449         0.079351
 C        -3.160971         0.333144        -0.433113
 C        -3.354331         1.826893        -0.094845
 C        -2.492939         1.778635         1.133478
 C        -1.889328         3.061794         1.474590
 C        -0.886617         3.562667         0.515262
 O        -1.318666         3.232428        -0.852854
 C        -1.974409         2.068545        -0.888958
 H        -0.786877        -0.212453         1.290417
 H        -3.176189         0.095209        -1.494037
 H        -3.657114        -0.376100         0.194517
 H        -4.287591         2.376955        -0.084967
 H        -2.881347         1.318702         2.108109
 H        -2.702431         3.749381         1.734290
 H        -1.217874         2.944089         2.358374
 H        -0.837813         4.646635         0.718955
 H         0.117761         3.181284         0.536545
 H        -2.227687         1.713260        -1.869624
