19
Iteration:   721
 O        -0.604262         0.221761         0.562552
 C        -1.851032         0.916815         0.177493
 C        -3.236924         0.294596         0.025893
 C        -3.435545         1.891587        -0.091098
 C        -2.402848         1.939135         1.115412
 C        -1.686335         3.175002         1.378171
 C        -0.668996         3.412613         0.277740
 O        -1.379179         3.107738        -1.038673
 C        -2.126709         1.882687        -0.959908
 H        -0.004932         1.044613         0.623193
 H        -3.390350        -0.541603        -0.720287
 H        -3.582308         0.013615         1.039134
 H        -4.401755         2.392166        -0.097217
 H        -2.697854         1.434653         2.105593
 H        -2.481983         4.075189         1.534621
 H        -1.156175         3.113530         2.365708
 H        -0.276451         4.506871         0.100738
 H         0.228567         2.812045         0.351585
 H        -2.202827         1.451649        -2.068762
