19
Iteration:  1387
 O        -0.694288         0.011174         0.496887
 C        -1.726425         0.826596         0.270489
 C        -3.150012         0.300909        -0.104035
 C        -3.388634         1.778390        -0.052633
 C        -2.503170         1.902686         1.192219
 C        -1.589084         3.243530         1.432334
 C        -0.722086         3.597173         0.183119
 O        -1.463592         3.206576        -1.003359
 C        -2.050105         2.027725        -0.936933
 H        -0.201234         0.168551         1.378040
 H        -3.332070        -0.182150        -1.067298
 H        -3.543458        -0.296834         0.746019
 H        -4.206694         2.389852        -0.257468
 H        -3.050327         1.599819         2.146565
 H        -2.477012         3.936634         1.608865
 H        -1.004584         3.154784         2.245410
 H        -0.603379         4.718255         0.072600
 H         0.168463         2.984027         0.148949
 H        -2.269903         1.642539        -2.030787
