19
Iteration:  1588
 O        -0.538053         0.231215         0.459492
 C        -1.797380         0.835513         0.152368
 C        -3.304377         0.344980        -0.155636
 C        -3.378435         1.904529        -0.031326
 C        -2.456463         1.841276         1.184611
 C        -1.598691         3.174178         1.506370
 C        -0.908680         3.611351         0.191554
 O        -1.305749         3.056524        -0.974237
 C        -2.022643         1.861064        -0.903510
 H        -0.554426         0.063893         1.444387
 H        -3.681170        -0.030060        -1.152761
 H        -3.696344        -0.340271         0.627763
 H        -4.252723         2.672328        -0.174714
 H        -3.055559         1.526356         2.082117
 H        -2.276271         3.954543         1.932517
 H        -0.912552         2.969846         2.272076
 H        -0.986546         4.647993        -0.020648
 H         0.167707         3.396864         0.463472
 H        -2.240243         1.383718        -1.873789
