19
Iteration:  3860charge 0 multiplicity 1
 O        -0.662195        -0.068080         0.380201
 C        -1.760708         0.794219         0.238229
 C        -3.168396         0.298241        -0.070725
 C        -3.302638         1.926304        -0.127539
 C        -2.516738         1.896524         1.209155
 C        -1.748742         3.216267         1.552129
 C        -0.878262         3.777672         0.278406
 O        -1.344450         3.143897        -1.050668
 C        -1.955450         1.884788        -0.882553
 H         0.038833         0.235472         0.896084
 H        -3.367109        -0.217341        -1.039635
 H        -3.712745        -0.173555         0.698525
 H        -4.187732         2.446955        -0.514176
 H        -2.933249         1.408532         2.143528
 H        -2.463231         3.973656         2.049531
 H        -1.070487         3.058351         2.457870
 H        -1.015552         4.893274         0.159087
 H         0.150161         3.770179         0.132189
 H        -1.959568         1.578662        -1.921597
