19
Iteration:  2535charge 0 multiplicity 1
 O        -0.566850         0.135712         0.316681
 C        -1.780387         0.844720         0.209845
 C        -3.190126         0.313221        -0.054191
 C        -3.382489         1.858712        -0.014257
 C        -2.450434         1.856118         1.274646
 C        -1.771090         3.231514         1.393901
 C        -0.814156         3.583121         0.317798
 O        -1.291108         3.139274        -0.995033
 C        -2.039247         1.970845        -0.944362
 H        -0.802867        -0.472004         1.036375
 H        -3.373732         0.045274        -1.078835
 H        -3.485496        -0.464802         0.627975
 H        -4.407685         2.361765        -0.046088
 H        -2.979800         1.349778         2.143653
 H        -2.648357         3.883468         1.437757
 H        -1.235870         3.364311         2.270195
 H        -0.805159         4.649373         0.293485
 H         0.187005         3.251271         0.614815
 H        -2.173098         1.462048        -1.949294
