19
Iteration:  1013
 O        -0.657911         0.060849         0.477284
 C        -1.842133         0.813161         0.209725
 C        -3.220814         0.316683        -0.031828
 C        -3.424267         1.911711        -0.116855
 C        -2.433404         1.923062         1.197500
 C        -1.535815         3.158393         1.482466
 C        -0.897088         3.717641         0.207612
 O        -1.313063         3.102677        -1.048490
 C        -2.096951         1.895622        -0.926003
 H        -0.177053         0.451859         1.282625
 H        -3.156853        -0.135056        -1.079215
 H        -3.500964        -0.460284         0.695005
 H        -4.424942         2.302813        -0.254211
 H        -2.936140         1.619393         2.145187
 H        -2.139066         3.863240         2.154546
 H        -0.599429         2.827738         2.244545
 H        -1.038746         4.860529         0.053831
 H         0.231805         3.481938         0.307353
 H        -1.921097         1.457812        -1.984703
