19
Iteration:  2579charge 0 multiplicity 1
 O        -0.570784         0.107398         0.351657
 C        -1.745397         0.857372         0.237024
 C        -3.261662         0.316554        -0.071340
 C        -3.414516         1.820499        -0.079920
 C        -2.506233         1.968677         1.173001
 C        -1.662744         3.106625         1.491324
 C        -0.875449         3.608974         0.282746
 O        -1.319034         3.198073        -0.987490
 C        -2.003185         1.903609        -0.903559
 H        -0.151265         0.003273         1.196028
 H        -3.318253        -0.239455        -1.047873
 H        -3.809797        -0.218129         0.726464
 H        -4.366707         2.431722        -0.421543
 H        -2.846566         1.425778         2.151327
 H        -2.407881         3.917772         1.673707
 H        -1.098086         2.810765         2.335284
 H        -0.983149         4.671544         0.250551
 H         0.235381         3.576026         0.448205
 H        -1.981372         1.472196        -1.992287
