19
Iteration:  1150
 O        -0.688456         0.139934         0.297443
 C        -1.797530         0.908569         0.305773
 C        -3.146975         0.248560        -0.018931
 C        -3.414427         1.835139        -0.031497
 C        -2.470686         1.927911         1.253093
 C        -1.736942         3.300618         1.416560
 C        -0.784693         3.520618         0.284334
 O        -1.199586         3.030558        -0.957719
 C        -2.132251         1.936610        -0.898406
 H        -0.189252         0.550136        -0.397921
 H        -3.256596        -0.275117        -0.968934
 H        -3.696650        -0.284167         0.771870
 H        -4.323030         2.305864        -0.465745
 H        -3.076570         1.737035         2.128316
 H        -2.588822         3.973239         1.243821
 H        -1.052000         3.522836         2.345762
 H        -0.700007         4.589181         0.200926
 H         0.346291         3.235940         0.519755
 H        -2.048637         1.498580        -1.834563
