19
Iteration:  1732
 O        -0.501127         0.418389         0.539039
 C        -1.865909         0.922840         0.126388
 C        -3.198731         0.272789         0.020696
 C        -3.532132         1.822916        -0.093682
 C        -2.538458         1.900123         1.160742
 C        -1.643866         3.122227         1.475823
 C        -0.646871         3.374395         0.250784
 O        -1.418826         3.177342        -0.949774
 C        -2.008110         1.924029        -1.059459
 H        -0.712009        -0.515126         0.152714
 H        -3.452242        -0.321223        -0.902546
 H        -3.514565        -0.202632         0.998268
 H        -4.440048         2.328116        -0.190319
 H        -2.945160         1.401805         2.079106
 H        -2.297416         4.073503         1.627189
 H        -1.162906         2.895485         2.449891
 H        -0.269835         4.395982         0.183333
 H         0.140560         2.613605         0.329364
 H        -2.014094         1.470061        -2.025204
