19
Iteration:  2662
 O        -0.593539         0.245611         0.304800
 C        -1.728266         0.961240         0.234176
 C        -3.129539         0.299844        -0.072661
 C        -3.393283         1.760406        -0.090020
 C        -2.524310         1.909510         1.240122
 C        -1.775979         3.260521         1.452770
 C        -0.700600         3.422230         0.387089
 O        -1.404900         3.175668        -0.996191
 C        -2.074915         1.934158        -0.948799
 H        -0.789958        -0.703496         0.640065
 H        -3.173812        -0.308091        -1.013087
 H        -3.551243        -0.325747         0.698350
 H        -4.257846         2.330809        -0.190704
 H        -3.038617         1.572434         2.112717
 H        -2.397611         4.127461         1.563661
 H        -1.316362         3.214834         2.492529
 H        -0.321082         4.483218         0.270732
 H         0.011352         2.633447         0.592524
 H        -1.863925         1.398274        -1.839684
