19
Iteration:  1721
 O        -0.614818         0.375523         0.507629
 C        -1.772125         0.943611         0.106424
 C        -3.156502         0.280384         0.026857
 C        -3.423797         1.794553        -0.097327
 C        -2.478810         1.968975         1.086493
 C        -1.641079         3.147921         1.461395
 C        -0.683891         3.357196         0.338103
 O        -1.408851         3.157262        -0.957379
 C        -2.165134         1.932723        -0.995300
 H        -0.447716        -0.624833         0.513714
 H        -3.441081        -0.322291        -0.880889
 H        -3.411659        -0.298858         0.954590
 H        -4.374252         2.145787        -0.357779
 H        -2.875844         1.490721         2.008773
 H        -2.360940         4.036120         1.565669
 H        -1.191076         2.963218         2.445233
 H        -0.297375         4.354777         0.178891
 H         0.204010         2.703292         0.380798
 H        -2.168879         1.665545        -2.028343
