19
Iteration:  1502
 O        -0.571851         0.241053         0.378412
 C        -1.752437         0.840759         0.180343
 C        -3.200999         0.311375        -0.014680
 C        -3.369267         1.805334        -0.002568
 C        -2.466695         1.931355         1.230968
 C        -1.876076         3.286600         1.363598
 C        -0.680306         3.423673         0.303447
 O        -1.296561         3.176256        -0.994843
 C        -2.100900         1.932317        -0.909947
 H        -0.804124        -0.735461         0.505460
 H        -3.498668        -0.154703        -1.002216
 H        -3.714402        -0.170668         0.861569
 H        -4.355615         2.317097        -0.270975
 H        -2.772512         1.487031         2.188495
 H        -2.578869         4.044387         1.360771
 H        -1.275394         3.272164         2.358155
 H        -0.224817         4.360686         0.043995
 H         0.029187         2.644916         0.627487
 H        -2.140443         1.617278        -1.921645
