19
Iteration:  1487charge 0 multiplicity 1
 O        -0.573731         0.198877         0.390708
 C        -1.808786         0.979559         0.181318
 C        -3.173961         0.260682         0.008122
 C        -3.502077         1.813498        -0.000266
 C        -2.457501         1.925129         1.140262
 C        -1.753617         3.267010         1.389314
 C        -0.784803         3.511100         0.319989
 O        -1.172499         3.027436        -0.977225
 C        -2.121352         2.006522        -0.956581
 H        -0.821426        -0.702975         0.297037
 H        -3.224641        -0.322984        -0.918544
 H        -3.414138        -0.308300         0.917380
 H        -4.440490         2.356386         0.117709
 H        -2.858070         1.409573         2.049088
 H        -2.550464         4.112059         1.431736
 H        -1.344304         3.268265         2.328525
 H        -0.539710         4.567369         0.377445
 H         0.138539         2.931879         0.502251
 H        -2.368437         1.637639        -2.004129
