19
Iteration:  2145charge 0 multiplicity 1
 O        -0.539426         0.259180         0.341216
 C        -1.769025         0.882666         0.195439
 C        -3.134215         0.227054        -0.092196
 C        -3.412111         1.868503         0.023037
 C        -2.502950         1.926652         1.232472
 C        -1.807796         3.323981         1.382324
 C        -0.727394         3.408437         0.296137
 O        -1.314953         3.110307        -0.963982
 C        -2.137103         1.943079        -0.902639
 H        -0.765219        -0.466857         0.917488
 H        -3.255092        -0.293101        -1.060113
 H        -3.485005        -0.303794         0.828415
 H        -4.313023         2.467972        -0.306329
 H        -2.748631         1.480954         2.220663
 H        -2.553524         4.136272         1.294108
 H        -1.274857         3.285064         2.366155
 H        -0.360261         4.409185         0.256348
 H         0.077484         2.697005         0.325831
 H        -2.357001         1.445759        -1.793272
