19
Iteration:  4038charge 0 multiplicity 1
 O        -0.567217         0.317863         0.394663
 C        -1.803760         0.842665         0.215410
 C        -3.179287         0.293868        -0.011799
 C        -3.336418         1.846500        -0.248335
 C        -2.510348         1.861286         1.097212
 C        -1.705642         3.117478         1.480698
 C        -0.759817         3.536653         0.345127
 O        -1.420517         3.201837        -0.871713
 C        -2.022087         1.863923        -0.951418
 H        -0.497409        -0.543342         0.720713
 H        -3.330532        -0.238210        -0.889642
 H        -3.726631         0.020925         0.923613
 H        -4.245945         2.451846        -0.509511
 H        -3.181496         1.562148         1.924780
 H        -2.489000         3.795527         1.961373
 H        -1.163401         2.684135         2.394534
 H        -0.670366         4.613027         0.237375
 H         0.372778         3.134177         0.441729
 H        -2.050631         1.591525        -1.993951
