19
Iteration:  4065
 O        -0.580087         0.186138         0.384545
 C        -1.753672         0.940857         0.195972
 C        -3.240134         0.232329        -0.167409
 C        -3.392255         1.751056        -0.127056
 C        -2.531021         1.888077         1.221892
 C        -1.696163         3.230469         1.502030
 C        -0.808363         3.545311         0.306340
 O        -1.345839         3.196486        -0.919292
 C        -1.982047         1.909493        -0.958637
 H        -0.528161        -0.143715         1.257532
 H        -3.274759        -0.194336        -1.240860
 H        -3.828752        -0.248036         0.622309
 H        -4.215637         2.453556        -0.241998
 H        -2.969117         1.463302         2.124527
 H        -2.307031         3.960235         2.033449
 H        -1.051844         2.832714         2.325998
 H        -0.766881         4.658179         0.271992
 H         0.163867         3.270951         0.492869
 H        -2.157113         1.583462        -2.069922
