19
Iteration:  2867
 O        -0.508998         0.192912         0.334221
 C        -1.764934         0.936634         0.140368
 C        -3.224445         0.269626        -0.015245
 C        -3.379337         1.888560        -0.113364
 C        -2.460180         1.955989         1.186175
 C        -1.771416         3.327777         1.512457
 C        -0.786785         3.426680         0.383742
 O        -1.377938         3.054220        -0.896882
 C        -2.099377         1.848744        -0.952193
 H         0.195088         0.528573        -0.257616
 H        -3.459395        -0.193137        -0.988974
 H        -3.607251        -0.323505         0.801656
 H        -4.245073         2.478770        -0.415960
 H        -2.943232         1.394541         2.015204
 H        -2.637494         4.095289         1.563566
 H        -1.267778         3.347642         2.475901
 H        -0.453483         4.396068         0.104075
 H        -0.072085         2.705576         0.709625
 H        -2.076731         1.493335        -2.000024
