19
Iteration:  4445charge 0 multiplicity 1
 O        -0.579699         0.159540         0.224588
 C        -1.757792         0.830984         0.202054
 C        -3.064869         0.285771        -0.095439
 C        -3.392039         1.800563        -0.201323
 C        -2.631439         1.958898         1.160476
 C        -1.848509         3.191028         1.562316
 C        -0.780790         3.506804         0.436140
 O        -1.328717         3.180423        -0.810332
 C        -1.984260         1.939302        -0.935443
 H        -0.017196         0.822453         0.612005
 H        -3.217741        -0.198432        -1.107161
 H        -3.595559        -0.209914         0.760084
 H        -4.235273         2.276320        -0.659018
 H        -3.296002         1.421241         1.850936
 H        -2.458841         4.059112         1.803827
 H        -1.434422         2.905392         2.543277
 H        -0.456545         4.525481         0.209320
 H         0.083660         2.856157         0.510629
 H        -1.917617         1.667921        -1.993238
