19
Iteration:  1265charge 0 multiplicity 1
 O        -0.609647         0.084421         0.500526
 C        -1.713364         0.869041         0.194555
 C        -3.226589         0.337967        -0.034981
 C        -3.361035         1.847647        -0.036857
 C        -2.383584         1.904947         1.204354
 C        -1.750096         3.255697         1.425343
 C        -0.830196         3.467710         0.241009
 O        -1.447265         3.237122        -1.007088
 C        -1.963442         1.938880        -0.947723
 H        -0.760595        -0.844791         0.502744
 H        -3.507089        -0.281936        -0.902141
 H        -3.750140        -0.089479         0.859101
 H        -4.244491         2.517818        -0.246692
 H        -2.823025         1.223520         1.997114
 H        -2.279435         4.277990         1.277837
 H        -1.107856         3.258443         2.214083
 H        -0.574215         4.616356         0.246318
 H         0.104464         2.945139         0.396489
 H        -2.003315         1.501693        -2.081064
