19
Iteration:  3899
 O        -0.645580         0.138652         0.527128
 C        -1.826700         0.871174         0.098023
 C        -3.198355         0.303937        -0.143252
 C        -3.413668         1.900810        -0.054773
 C        -2.454583         1.797821         1.185950
 C        -1.657474         3.137067         1.535254
 C        -0.843486         3.767190         0.273576
 O        -1.213914         3.004921        -0.970793
 C        -2.104901         1.912152        -0.950608
 H         0.009834         0.939206         0.424468
 H        -3.307467        -0.086714        -1.176531
 H        -3.651777        -0.349313         0.685201
 H        -4.362792         2.352357        -0.331828
 H        -2.831927         1.235864         2.041292
 H        -2.417317         3.866298         1.712470
 H        -1.049196         3.088761         2.466439
 H        -1.103320         4.827383         0.027128
 H         0.278793         3.738181         0.596321
 H        -2.416606         1.524320        -1.969706
