19
Iteration:  1014charge 0 multiplicity 1
 O        -0.657704         0.068205         0.482908
 C        -1.840360         0.804589         0.206906
 C        -3.226399         0.318968        -0.030459
 C        -3.426319         1.911231        -0.121311
 C        -2.438198         1.923748         1.201847
 C        -1.535390         3.155506         1.484547
 C        -0.895663         3.716949         0.206363
 O        -1.312050         3.113307        -1.057007
 C        -2.088621         1.891093        -0.932524
 H        -0.179043         0.463619         1.299134
 H        -3.198702        -0.157275        -1.075963
 H        -3.502818        -0.458856         0.708033
 H        -4.408473         2.304948        -0.238837
 H        -2.907743         1.551176         2.148228
 H        -2.122305         3.854554         2.186120
 H        -0.597784         2.815556         2.248513
 H        -1.046298         4.869935         0.065657
 H         0.245235         3.467627         0.316978
 H        -1.958218         1.442310        -1.960607
