19
Iteration:  4558
 O        -0.585594         0.156993         0.489460
 C        -1.729223         0.892278         0.150889
 C        -3.143498         0.291972        -0.280057
 C        -3.390670         1.776845        -0.215719
 C        -2.530814         1.828221         1.115270
 C        -1.759646         3.135048         1.621651
 C        -0.866522         3.555972         0.494847
 O        -1.384001         3.262073        -0.901388
 C        -1.959748         1.964810        -0.975885
 H        -0.097124         0.295129        -0.369905
 H        -3.360206        -0.245110        -1.211661
 H        -3.670409        -0.032521         0.627286
 H        -4.320048         2.377462        -0.385801
 H        -2.921267         1.395002         2.085605
 H        -2.468159         3.890328         1.971329
 H        -1.188732         2.813105         2.519219
 H        -0.675563         4.621623         0.558304
 H         0.022027         2.976605         0.621772
 H        -1.843193         1.591183        -2.049370
