19
Iteration:  1731
 O        -0.508882         0.417190         0.539429
 C        -1.866252         0.919659         0.114030
 C        -3.187698         0.277540         0.028702
 C        -3.523012         1.819302        -0.093547
 C        -2.534897         1.905125         1.156005
 C        -1.636138         3.120213         1.479372
 C        -0.646790         3.376162         0.260204
 O        -1.418680         3.177695        -0.949705
 C        -2.019297         1.927275        -1.055715
 H        -0.716586        -0.543569         0.177188
 H        -3.460006        -0.299906        -0.871278
 H        -3.481283        -0.219864         0.965644
 H        -4.472146         2.322113        -0.215399
 H        -2.935425         1.424610         2.077243
 H        -2.328447         4.080819         1.614676
 H        -1.219845         2.890661         2.426928
 H        -0.293583         4.350256         0.142921
 H         0.142355         2.621201         0.352989
 H        -2.020197         1.455708        -2.068871
