19
Iteration:  2531
 O        -0.567802         0.136115         0.314382
 C        -1.778551         0.854673         0.183587
 C        -3.175243         0.294492        -0.068771
 C        -3.356115         1.869976         0.016278
 C        -2.515559         1.853812         1.283831
 C        -1.781952         3.236411         1.384224
 C        -0.801872         3.577248         0.324242
 O        -1.292938         3.155560        -1.006729
 C        -2.043824         1.955848        -0.914161
 H        -0.753182        -0.565208         0.976247
 H        -3.400718        -0.046079        -1.166578
 H        -3.513274        -0.493753         0.647010
 H        -4.300745         2.234746         0.088698
 H        -3.050181         1.475468         2.160927
 H        -2.647158         3.910517         1.362758
 H        -1.140223         3.421073         2.342807
 H        -0.639482         4.700767         0.163585
 H         0.193625         3.202156         0.594128
 H        -2.129427         1.514045        -1.905405
