19
Iteration:  3402
 O        -0.502590         0.229631         0.386243
 C        -1.800486         0.898270         0.116286
 C        -3.161066         0.297768        -0.138273
 C        -3.360198         1.831673        -0.016376
 C        -2.456855         1.905516         1.254186
 C        -1.839351         3.210242         1.384905
 C        -0.744493         3.426157         0.348365
 O        -1.381425         3.167266        -0.933849
 C        -2.076031         1.964389        -0.894499
 H        -0.805468        -0.434138         1.064669
 H        -3.343661        -0.015818        -1.171629
 H        -3.532919        -0.335188         0.616451
 H        -4.251697         2.350975        -0.224238
 H        -2.945129         1.370165         2.063468
 H        -2.557317         4.028172         1.179991
 H        -1.289873         3.314100         2.401529
 H        -0.361610         4.439989         0.491927
 H         0.013354         2.565333         0.400139
 H        -2.111397         1.692138        -2.012991
