19
Iteration:  2098charge 0 multiplicity 1
 O        -0.592387         0.259600         0.447322
 C        -1.814023         0.885542         0.225499
 C        -3.165980         0.245336         0.022519
 C        -3.363930         1.828226        -0.149667
 C        -2.529200         1.911203         1.154496
 C        -1.630392         3.127625         1.408494
 C        -0.738154         3.504570         0.223276
 O        -1.448085         3.208807        -0.949199
 C        -2.047897         1.958765        -0.945743
 H        -0.772210        -0.306291         1.181060
 H        -3.231033        -0.393699        -0.910720
 H        -3.532552        -0.355683         0.893743
 H        -4.282959         2.462166        -0.179788
 H        -3.009771         1.474518         2.049900
 H        -2.369251         3.845176         1.665271
 H        -0.903893         2.999118         2.269522
 H        -0.530437         4.594898         0.110665
 H         0.200524         2.906558         0.231247
 H        -2.044979         1.480751        -1.848523
