19
Iteration:  2396charge 0 multiplicity 1
 O        -0.622479         0.058401         0.336325
 C        -1.755252         0.857030         0.153191
 C        -3.164887         0.257096        -0.005394
 C        -3.345095         1.833258        -0.085947
 C        -2.464555         1.902304         1.201544
 C        -1.727335         3.159118         1.440032
 C        -0.837756         3.641290         0.294791
 O        -1.391593         3.269855        -0.955831
 C        -1.972942         1.880118        -0.932433
 H        -0.772695        -0.308299         1.293985
 H        -3.405900        -0.273105        -0.947942
 H        -3.512096        -0.023110         1.044179
 H        -4.218502         2.572452        -0.400588
 H        -2.943182         1.540504         2.104193
 H        -2.589139         3.842898         1.608543
 H        -1.053046         3.351566         2.380889
 H        -0.771319         4.739594         0.206247
 H         0.177390         3.207815         0.443336
 H        -2.066353         1.460284        -1.915592
