19
Iteration:   119
 O        -0.663821         0.191625         0.761385
 C        -1.788540         0.884758         0.196140
 C        -3.205544         0.354171        -0.046886
 C        -3.367707         1.949400        -0.057634
 C        -2.427928         1.956780         1.229733
 C        -1.474565         3.069119         1.452561
 C        -0.990419         3.649633         0.103350
 O        -1.267828         3.021916        -1.186891
 C        -2.119231         1.896161        -1.000721
 H        -0.596621        -0.775152         0.487414
 H        -3.431611        -0.271834        -0.943021
 H        -3.603008        -0.197623         0.891441
 H        -4.250747         2.412121        -0.213208
 H        -2.936907         1.591434         2.237051
 H        -1.985453         3.881684         2.036589
 H        -0.608073         2.640204         2.094365
 H        -1.550046         4.674534         0.122386
 H         0.046431         3.750746         0.256761
 H        -2.282715         1.486982        -1.976929
