19
Iteration:   751
 O        -0.552530         0.123584         0.307807
 C        -1.816863         0.915926         0.248370
 C        -3.255171         0.298357        -0.005432
 C        -3.415708         1.905738        -0.029531
 C        -2.553982         2.042572         1.268099
 C        -1.778880         3.333416         1.396014
 C        -0.780921         3.516988         0.212516
 O        -1.240082         2.948687        -0.960493
 C        -2.019271         1.829526        -0.863186
 H        -0.082021         0.776519        -0.216857
 H        -3.328146        -0.472101        -0.829949
 H        -3.688603        -0.193112         0.869680
 H        -4.323175         2.435488        -0.212588
 H        -2.941359         1.597913         2.241203
 H        -2.427957         4.172585         1.641591
 H        -1.089689         3.185633         2.199327
 H        -0.567081         4.597406        -0.001050
 H         0.135413         2.953056         0.578323
 H        -2.151453         1.399064        -1.845013
