19
Iteration:  4617
 O        -0.587949         0.195416         0.252933
 C        -1.772611         0.855528         0.148133
 C        -3.102408         0.202213        -0.257561
 C        -3.341093         1.777267        -0.152448
 C        -2.530953         1.844851         1.141957
 C        -1.898728         3.240192         1.552814
 C        -0.824830         3.470564         0.529112
 O        -1.304533         3.280546        -0.785910
 C        -1.980101         1.977473        -0.945659
 H        -0.083489         0.538740         1.009888
 H        -3.285639        -0.251868        -1.246938
 H        -3.789499        -0.298095         0.444173
 H        -4.159420         2.419832        -0.415680
 H        -2.972989         1.359195         2.045543
 H        -2.715870         4.003835         1.475161
 H        -1.537918         3.179504         2.597385
 H        -0.236630         4.416957         0.400420
 H        -0.024587         2.719518         0.709668
 H        -2.099357         1.610314        -1.986763
