19
Iteration:   118charge 0 multiplicity 1
 O        -0.665022         0.183307         0.760993
 C        -1.797095         0.884238         0.196013
 C        -3.212927         0.348487        -0.045695
 C        -3.352275         1.941282        -0.056036
 C        -2.430450         1.956740         1.235805
 C        -1.473802         3.072887         1.447469
 C        -0.991630         3.662514         0.107924
 O        -1.265746         3.024137        -1.181049
 C        -2.116380         1.897798        -1.011831
 H        -0.604154        -0.765020         0.494630
 H        -3.431000        -0.251508        -0.931407
 H        -3.607350        -0.219037         0.897604
 H        -4.281370         2.409384        -0.173425
 H        -2.927937         1.574726         2.219831
 H        -1.979849         3.900918         2.015626
 H        -0.599951         2.670065         2.086170
 H        -1.528468         4.671381         0.098883
 H         0.043822         3.780772         0.255309
 H        -2.289017         1.471456        -2.022399
