19
Iteration:  3398
 O        -0.525854         0.231859         0.379916
 C        -1.758029         0.898178         0.095788
 C        -3.165448         0.322082        -0.128956
 C        -3.370167         1.790929        -0.042377
 C        -2.515148         1.911117         1.314102
 C        -1.829431         3.234510         1.393351
 C        -0.726563         3.415400         0.317932
 O        -1.377449         3.172329        -0.928838
 C        -2.042618         1.988030        -0.904180
 H        -0.703585        -0.544873         0.914294
 H        -3.253561        -0.119456        -1.182710
 H        -3.607229        -0.438482         0.654857
 H        -4.418425         2.310562        -0.181743
 H        -2.950651         1.299725         2.123978
 H        -2.559758         4.007378         1.226468
 H        -1.260568         3.387619         2.295058
 H        -0.279832         4.384091         0.490758
 H        -0.032270         2.633605         0.497988
 H        -2.183979         1.627254        -1.902296
