19
Iteration:  2705
 O        -0.536788         0.286008         0.323452
 C        -1.823549         0.872350         0.213186
 C        -3.239300         0.315405        -0.045640
 C        -3.395119         1.829600        -0.037256
 C        -2.444314         1.833156         1.228987
 C        -1.867838         3.241874         1.463130
 C        -0.718985         3.512815         0.298388
 O        -1.267672         3.187671        -0.969502
 C        -2.007671         1.866680        -0.941433
 H        -0.568632        -0.732185         0.259085
 H        -3.619559        -0.183176        -0.927600
 H        -3.614737        -0.197049         0.809660
 H        -4.344842         2.239821        -0.174342
 H        -2.925708         1.229874         2.018601
 H        -2.704972         3.905789         1.452419
 H        -1.498021         3.355139         2.500528
 H        -0.416191         4.620867         0.292968
 H         0.079901         2.774525         0.557451
 H        -2.141095         1.483743        -1.903570
