19
Iteration:  1539
 O        -0.571629         0.163028         0.383468
 C        -1.798827         0.895431         0.210030
 C        -3.153419         0.330331        -0.071448
 C        -3.371603         1.805836        -0.119377
 C        -2.508356         1.990581         1.186658
 C        -1.671095         3.265672         1.410883
 C        -0.745898         3.457926         0.262769
 O        -1.474613         3.160674        -0.922579
 C        -2.032448         1.900139        -0.888994
 H        -0.555035        -0.272864         1.253098
 H        -3.258928        -0.168599        -1.016938
 H        -3.743674        -0.173541         0.669856
 H        -4.266926         2.234032        -0.405479
 H        -2.835362         1.631895         2.158511
 H        -2.266816         4.178947         1.716389
 H        -1.306170         2.881355         2.351809
 H        -0.174938         4.440667         0.185508
 H         0.031377         2.691945         0.382059
 H        -2.103005         1.360344        -1.856871
