19
Iteration:  3105
 O        -0.608659         0.145700         0.530576
 C        -1.712006         0.837080         0.178462
 C        -3.256221         0.359326        -0.110550
 C        -3.254358         1.892920        -0.021857
 C        -2.334643         1.825108         1.169867
 C        -1.723725         3.179941         1.511613
 C        -0.959179         3.614513         0.243951
 O        -1.385315         3.158876        -1.010710
 C        -2.055811         1.917043        -0.964710
 H        -0.334925        -0.529712        -0.148115
 H        -3.426937        -0.051809        -1.129385
 H        -3.662212        -0.289064         0.677135
 H        -4.260737         2.442623        -0.080877
 H        -2.889231         1.466088         2.136827
 H        -2.394519         3.972371         1.700383
 H        -1.159987         3.105769         2.493874
 H        -0.603852         4.638683         0.233847
 H        -0.076412         3.003354         0.443508
 H        -2.329953         1.587609        -2.019075
