19
Iteration:  3277charge 0 multiplicity 1
 O        -0.665741         0.040546         0.419497
 C        -1.767047         0.831901         0.174801
 C        -3.178729         0.269893        -0.016898
 C        -3.332459         1.855917        -0.146767
 C        -2.497906         1.944446         1.147678
 C        -1.645733         3.152445         1.473737
 C        -0.850324         3.623286         0.252050
 O        -1.416343         3.216886        -0.927378
 C        -2.009582         1.959351        -0.900645
 H         0.175515         0.498972         0.393407
 H        -3.425567        -0.327266        -0.938215
 H        -3.534348        -0.236563         0.972663
 H        -4.421513         2.141160        -0.265906
 H        -2.896144         1.591759         2.093067
 H        -2.303466         3.934391         1.876207
 H        -0.995923         2.695954         2.240943
 H        -0.765913         4.719921         0.093402
 H         0.212603         3.346056         0.444288
 H        -1.954184         1.595104        -1.889377
