19
Iteration:  3598charge 0 multiplicity 1
 O        -0.537725         0.331330         0.378472
 C        -1.812085         0.991404         0.202681
 C        -3.156521         0.230987        -0.185011
 C        -3.440256         1.872200        -0.093177
 C        -2.472582         1.801434         1.211194
 C        -1.789458         3.217260         1.504993
 C        -0.748365         3.371998         0.358487
 O        -1.246332         3.107514        -0.963027
 C        -2.167573         1.970314        -0.976132
 H        -0.405192         0.292339         1.373594
 H        -3.222753        -0.144980        -1.284083
 H        -3.550658        -0.341926         0.650934
 H        -4.288750         2.467990        -0.028889
 H        -2.897799         1.224281         2.065123
 H        -2.485364         3.970843         1.538703
 H        -1.398829         2.997458         2.511500
 H        -0.459250         4.413395         0.232304
 H         0.116043         2.780788         0.690654
 H        -2.411946         1.584178        -1.977976
