19
Iteration:  3732charge 0 multiplicity 1
 O        -0.572797         0.217333         0.433734
 C        -1.831010         0.925992         0.135667
 C        -3.177271         0.258504         0.001033
 C        -3.347119         1.846249        -0.140274
 C        -2.503869         1.913085         1.230187
 C        -1.811828         3.195278         1.507812
 C        -0.828580         3.425381         0.366925
 O        -1.268575         3.150868        -0.958193
 C        -2.048388         1.915557        -1.013301
 H         0.012874         0.539081        -0.337254
 H        -3.421114        -0.246923        -0.966805
 H        -3.634584        -0.102087         0.935230
 H        -4.303455         2.402973        -0.341696
 H        -3.025947         1.375079         2.032432
 H        -2.502078         3.988748         1.569016
 H        -1.190867         3.145313         2.421250
 H        -0.679313         4.530723         0.344137
 H         0.096233         2.884554         0.438479
 H        -1.908517         1.556908        -2.051588
