19
Iteration:  2459charge 0 multiplicity 1
 O        -0.492416         0.329556         0.426960
 C        -1.811300         0.893704         0.253646
 C        -3.200990         0.270767        -0.087087
 C        -3.460517         1.776890        -0.082928
 C        -2.490467         1.875591         1.185995
 C        -1.654176         3.144744         1.457711
 C        -0.762210         3.465734         0.291951
 O        -1.336082         3.206297        -1.009738
 C        -2.130260         1.970504        -0.958367
 H        -0.731606        -0.650515         0.592019
 H        -3.339129        -0.420843        -0.888278
 H        -3.812775        -0.148050         0.723728
 H        -4.545323         2.289672        -0.045222
 H        -3.070609         1.549691         2.099157
 H        -2.470373         3.931526         1.646614
 H        -1.055883         3.000964         2.359793
 H        -0.354951         4.454293         0.424259
 H         0.174269         2.800067         0.404245
 H        -2.009294         1.584780        -2.024090
