19
Iteration:  2260charge 0 multiplicity 1
 O        -0.590664         0.171297         0.536874
 C        -1.767281         0.875173         0.175256
 C        -3.159088         0.313514        -0.135134
 C        -3.371098         1.822746        -0.030460
 C        -2.376025         1.914873         1.109283
 C        -1.658880         3.174518         1.406097
 C        -0.770220         3.532537         0.277451
 O        -1.490097         3.193284        -0.969102
 C        -2.109168         1.950541        -0.909338
 H        -0.788966        -0.548870         1.112920
 H        -3.239861         0.006819        -1.153677
 H        -3.507607        -0.242842         0.689453
 H        -4.200011         2.375297        -0.363973
 H        -2.823962         1.510399         2.039831
 H        -2.531649         3.883530         1.699090
 H        -1.035496         2.993327         2.255752
 H        -0.429116         4.569205         0.109972
 H         0.019012         2.813033         0.503769
 H        -2.226636         1.534374        -1.991572
