19
Iteration:   662charge 0 multiplicity 1
 O        -0.729168        -0.077558         0.594818
 C        -1.787032         0.825765         0.235928
 C        -3.196579         0.315014        -0.042756
 C        -3.256190         1.791643        -0.088779
 C        -2.403008         2.024468         1.187400
 C        -1.625674         3.277387         1.369502
 C        -0.746352         3.591324         0.145114
 O        -1.532602         3.241406        -1.036234
 C        -2.008466         1.885743        -0.910243
 H        -0.085459         0.368278         1.177164
 H        -3.471766        -0.217992        -0.989916
 H        -3.652991        -0.081245         0.874580
 H        -4.206936         2.270354        -0.364684
 H        -2.860369         1.700493         2.131131
 H        -2.337829         4.080532         1.476316
 H        -1.010774         3.253760         2.258468
 H        -0.692404         4.620905         0.112784
 H         0.289723         3.106227         0.168476
 H        -2.107970         1.460627        -1.832773
