19
Iteration:  3056charge 0 multiplicity 1
 O        -0.566044         0.209954         0.296417
 C        -1.795842         0.888967         0.161798
 C        -3.102159         0.185449        -0.086340
 C        -3.416747         1.779168        -0.022814
 C        -2.505722         1.993974         1.182519
 C        -1.746447         3.360285         1.479101
 C        -0.733439         3.482198         0.345163
 O        -1.383386         3.132556        -0.903285
 C        -2.086896         1.911389        -0.960420
 H        -0.773356        -0.630334         0.702596
 H        -3.339473        -0.146363        -1.086641
 H        -3.675343        -0.337934         0.657536
 H        -4.346360         2.293644        -0.140818
 H        -2.621701         1.560865         2.161906
 H        -2.282578         4.394342         1.520563
 H        -1.241984         3.200538         2.461539
 H        -0.394800         4.524676         0.116314
 H        -0.001106         2.738797         0.743444
 H        -2.081091         1.437515        -1.915675
