19
Iteration:  3161charge 0 multiplicity 1
 O        -0.603050         0.123928         0.384236
 C        -1.753751         0.889607         0.224719
 C        -3.192934         0.292984        -0.024648
 C        -3.367160         1.884497        -0.189743
 C        -2.448997         1.909282         1.232719
 C        -1.711718         3.205858         1.521560
 C        -0.828493         3.519036         0.314929
 O        -1.404999         3.171325        -0.977497
 C        -2.094308         1.888983        -0.930942
 H         0.112623         0.619404         0.064369
 H        -3.128322        -0.434950        -0.903364
 H        -3.591273        -0.208079         0.861193
 H        -4.406525         2.396617        -0.387782
 H        -3.082984         1.514504         2.148794
 H        -2.167650         4.144396         1.819722
 H        -1.008538         2.848002         2.333845
 H        -0.530091         4.557165         0.127018
 H         0.148720         3.055392         0.352381
 H        -2.052809         1.426662        -2.002267
