19
Iteration:  4217charge 0 multiplicity 1
 O        -0.566941         0.197538         0.444720
 C        -1.754373         0.900694         0.224637
 C        -3.142587         0.243036        -0.156917
 C        -3.310875         1.791486        -0.043910
 C        -2.600487         1.904217         1.201702
 C        -1.779835         3.191855         1.507053
 C        -0.788772         3.526595         0.284987
 O        -1.324948         3.230378        -1.012494
 C        -2.032757         2.005027        -0.921501
 H        -0.802123        -0.741127         0.267656
 H        -3.313439        -0.308143        -1.091624
 H        -3.625959        -0.283970         0.644811
 H        -4.285680         2.186713        -0.351142
 H        -3.177724         1.362653         1.945046
 H        -2.529324         3.937010         1.864948
 H        -1.122117         2.976868         2.418782
 H        -0.525985         4.582531         0.429358
 H         0.044908         2.739016         0.508393
 H        -2.066402         1.687516        -2.000780
