19
Iteration:  1723charge 0 multiplicity 1
 O        -0.597351         0.384951         0.515419
 C        -1.796626         0.939301         0.093712
 C        -3.153412         0.291218         0.036223
 C        -3.444138         1.798213        -0.094902
 C        -2.491941         1.958474         1.098042
 C        -1.637724         3.145093         1.461508
 C        -0.679551         3.353196         0.332720
 O        -1.411428         3.164276        -0.957258
 C        -2.137551         1.930241        -1.013385
 H        -0.477011        -0.627741         0.472695
 H        -3.476124        -0.319503        -0.872124
 H        -3.404521        -0.342035         0.960402
 H        -4.391647         2.156665        -0.342376
 H        -2.881613         1.501348         2.032448
 H        -2.322377         3.954952         1.551269
 H        -1.224971         2.910270         2.525926
 H        -0.277011         4.412566         0.084584
 H         0.207510         2.689917         0.396966
 H        -2.119796         1.630754        -2.003034
