19
Iteration:  3421
 O        -0.571399         0.208925         0.404102
 C        -1.715684         0.845394         0.170364
 C        -3.238061         0.312614        -0.131974
 C        -3.388956         1.846100        -0.137834
 C        -2.419243         1.847758         1.172151
 C        -1.782745         3.218992         1.510166
 C        -0.752311         3.504548         0.333904
 O        -1.371058         3.159466        -0.930249
 C        -2.093179         1.971186        -0.982331
 H        -0.204280         0.032737         1.338129
 H        -3.200614        -0.350140        -1.068490
 H        -3.851816        -0.241295         0.682459
 H        -4.311742         2.495756         0.040478
 H        -2.775246         1.222850         2.031345
 H        -2.606994         3.883345         1.496083
 H        -1.223253         3.212690         2.480610
 H        -0.488573         4.532687         0.236185
 H         0.100779         2.921118         0.636831
 H        -2.271861         1.568626        -1.973256
