19
Iteration:  4802charge 0 multiplicity 1
 O        -0.490287         0.208660         0.308335
 C        -1.744451         0.931287         0.101957
 C        -3.117888         0.283984        -0.395747
 C        -3.420580         1.744631        -0.142229
 C        -2.566303         1.797710         1.188381
 C        -1.959974         3.112274         1.568151
 C        -0.847378         3.513035         0.597135
 O        -1.170434         3.240128        -0.817567
 C        -2.066998         2.038333        -0.958069
 H        -0.630900        -0.125176         1.276406
 H        -3.274674         0.017416        -1.451858
 H        -3.561032        -0.485359         0.252577
 H        -4.387871         2.302942        -0.220453
 H        -2.990887         1.117875         1.992382
 H        -2.761520         3.889288         1.625881
 H        -1.448794         3.295526         2.535479
 H        -0.531741         4.607693         0.668658
 H         0.258240         2.974048         0.716483
 H        -2.003781         1.901493        -2.063169
