19
Iteration:   844charge 0 multiplicity 1
 O        -0.702512         0.202129         0.606766
 C        -1.780823         0.940752         0.300621
 C        -3.162118         0.330029        -0.086340
 C        -3.367839         1.813107        -0.057243
 C        -2.493822         1.982354         1.206864
 C        -1.610457         3.110227         1.413182
 C        -0.771318         3.542980         0.186184
 O        -1.436183         3.178452        -1.042362
 C        -2.022953         1.860908        -0.944495
 H        -0.464551        -0.404525        -0.170630
 H        -3.170843        -0.056018        -1.073444
 H        -3.563682        -0.428616         0.590321
 H        -4.320156         2.323391        -0.353514
 H        -2.877901         1.621376         2.179719
 H        -2.159496         3.997709         1.848135
 H        -0.912609         2.679316         2.185718
 H        -0.448299         4.543453         0.085854
 H         0.185571         2.938518         0.198048
 H        -2.141682         1.467922        -2.032032
