19
Iteration:  2242
 O        -0.559194         0.052535         0.487612
 C        -1.738620         0.825292         0.222684
 C        -3.199852         0.258868        -0.101211
 C        -3.369886         1.863895        -0.101940
 C        -2.407211         1.870049         1.206671
 C        -1.709925         3.238482         1.500762
 C        -0.782298         3.590675         0.241294
 O        -1.421772         3.230781        -0.997396
 C        -2.105762         1.981547        -1.014386
 H        -0.845886        -0.406588         1.254175
 H        -3.248282        -0.234654        -1.086743
 H        -3.751216        -0.263672         0.743662
 H        -4.357182         2.446025         0.000412
 H        -2.772539         1.394877         2.106034
 H        -2.351925         4.034793         1.517291
 H        -1.077017         3.258538         2.446611
 H        -0.741395         4.657129         0.263442
 H         0.219283         3.160302         0.131763
 H        -2.209238         1.602337        -1.967521
