19
Iteration:   978charge 0 multiplicity 1
 O        -0.697745        -0.080962         0.358032
 C        -1.801469         0.822857         0.198523
 C        -3.245334         0.330865         0.012826
 C        -3.353736         1.884812         0.013950
 C        -2.405746         1.897990         1.264539
 C        -1.763483         3.294651         1.478263
 C        -0.903372         3.743847         0.217036
 O        -1.229627         3.084379        -1.067730
 C        -1.965004         1.902945        -0.908565
 H         0.042215         0.611254         0.498624
 H        -3.449814        -0.148453        -0.958898
 H        -3.641372        -0.268449         0.840907
 H        -4.272344         2.469656        -0.302614
 H        -2.970603         1.543658         2.148247
 H        -2.538379         4.046833         1.699083
 H        -0.950868         3.260139         2.335217
 H        -0.884247         4.830084         0.001389
 H         0.148843         3.426122         0.429268
 H        -1.984922         1.352178        -1.954079
