19
Iteration:  4286
 O        -0.565746         0.151933         0.404929
 C        -1.688962         0.980984         0.181724
 C        -3.189946         0.342286        -0.186287
 C        -3.376716         1.808070        -0.062011
 C        -2.488204         1.796735         1.215380
 C        -1.857714         3.096982         1.449068
 C        -0.818428         3.477331         0.300169
 O        -1.261032         3.152629        -0.986116
 C        -2.090700         2.055674        -0.872169
 H        -0.126897         0.262965         1.190118
 H        -3.206512        -0.081180        -1.173742
 H        -3.715653        -0.204178         0.608478
 H        -4.313171         2.348360         0.071640
 H        -2.866767         1.452805         2.105252
 H        -2.571606         3.956216         1.429298
 H        -1.541659         3.180523         2.506219
 H        -0.775277         4.556149         0.212794
 H         0.122656         2.951087         0.669629
 H        -2.239178         1.732110        -1.935115
