19
Iteration:  1181
 O        -0.572212         0.190871         0.530922
 C        -1.727541         0.885673         0.181672
 C        -3.349182         0.336746        -0.075885
 C        -3.390242         1.846795        -0.040902
 C        -2.445063         1.884656         1.188512
 C        -1.662077         3.159424         1.496814
 C        -0.848565         3.603249         0.241149
 O        -1.271618         3.048762        -1.021938
 C        -2.105808         1.876093        -0.940616
 H        -0.020580         0.397793        -0.298604
 H        -3.694702        -0.048308        -1.053575
 H        -3.789483        -0.128688         0.848811
 H        -4.199680         2.489075        -0.457699
 H        -3.090156         1.573219         2.029484
 H        -2.217564         3.959407         1.998253
 H        -0.905361         3.180530         2.403386
 H        -0.969516         4.666841         0.009212
 H         0.216997         3.194561         0.401646
 H        -2.081102         1.489097        -1.924000
