19
Iteration:  3730charge 0 multiplicity 1
 O        -0.571725         0.209184         0.439972
 C        -1.831853         0.915680         0.135692
 C        -3.176393         0.273165        -0.009614
 C        -3.360722         1.851772        -0.123884
 C        -2.491448         1.908538         1.218304
 C        -1.807591         3.206147         1.508160
 C        -0.835533         3.428011         0.356264
 O        -1.268535         3.153074        -0.957114
 C        -2.034241         1.908314        -1.007709
 H        -0.048996         0.532386        -0.317180
 H        -3.417143        -0.243127        -0.982833
 H        -3.623522        -0.100359         0.886351
 H        -4.285058         2.361770        -0.367792
 H        -2.988164         1.343460         2.037453
 H        -2.591165         4.005952         1.581479
 H        -1.197326         3.163540         2.449674
 H        -0.722598         4.550961         0.419855
 H         0.142379         2.865545         0.377725
 H        -1.965384         1.550564        -2.028509
