19
Iteration:  1953charge 0 multiplicity 1
 O        -0.530907         0.200673         0.424243
 C        -1.784481         0.936737         0.269083
 C        -3.192049         0.293144        -0.084959
 C        -3.434930         1.796175        -0.118672
 C        -2.355008         1.919177         1.202902
 C        -1.697589         3.296793         1.448267
 C        -0.758413         3.485899         0.244656
 O        -1.426698         3.113552        -0.967443
 C        -2.135896         1.944464        -0.967377
 H        -0.864084        -0.612149         0.972053
 H        -3.421514        -0.421625        -0.913697
 H        -3.531578        -0.290669         0.839925
 H        -4.344119         2.352244        -0.051965
 H        -2.788689         1.346905         2.091355
 H        -2.454455         4.131229         1.447620
 H        -1.324218         3.309785         2.498870
 H        -0.189197         4.493536         0.240196
 H         0.091514         2.768132         0.336471
 H        -2.145916         1.561757        -1.998220
