19
Iteration:  3858charge 0 multiplicity 1
 O        -0.675101        -0.077330         0.371284
 C        -1.733627         0.800260         0.248026
 C        -3.179085         0.298399        -0.089382
 C        -3.288929         1.897275        -0.139503
 C        -2.520199         1.912068         1.200141
 C        -1.739475         3.234597         1.564063
 C        -0.877022         3.765037         0.264959
 O        -1.352487         3.154934        -1.035403
 C        -1.971969         1.885528        -0.866963
 H         0.080048         0.228152         0.914347
 H        -3.356918        -0.254646        -1.040324
 H        -3.725800        -0.137341         0.729163
 H        -4.140881         2.458829        -0.451745
 H        -2.910421         1.453375         2.169127
 H        -2.454948         3.961186         2.018754
 H        -1.170744         3.024494         2.480254
 H        -1.048904         4.884815         0.138340
 H         0.218801         3.815586         0.116325
 H        -1.924284         1.521494        -1.925817
