19
Iteration:     7charge 0 multiplicity 1
 O        -0.702878         0.033983         0.498205
 C        -1.842197         0.808069         0.274494
 C        -3.277582         0.390130         0.063182
 C        -3.304596         1.976062        -0.045371
 C        -2.358399         1.972472         1.231556
 C        -1.435337         3.197264         1.347048
 C        -1.284764         3.962036         0.057231
 O        -1.079910         2.806713        -1.008160
 C        -2.014232         1.803171        -0.920259
 H        -0.633356        -0.381977         1.358351
 H        -3.485290        -0.097538        -0.906227
 H        -3.840842        -0.101963         0.920067
 H        -4.084015         2.710571        -0.324894
 H        -2.820053         1.590210         2.213757
 H        -1.851906         3.935188         2.070211
 H        -0.397504         2.939793         1.691179
 H        -2.255433         4.452202        -0.324211
 H        -0.343594         4.512527         0.014820
 H        -2.143591         1.391519        -1.944757
