19
Iteration:  4258charge 0 multiplicity 1
 O        -0.604037         0.167869         0.344603
 C        -1.763634         0.746413         0.101493
 C        -3.182106         0.267404        -0.142292
 C        -3.277490         1.820359        -0.133810
 C        -2.464172         1.896099         1.134946
 C        -1.809441         3.295006         1.514145
 C        -0.766297         3.538433         0.390812
 O        -1.452420         3.205505        -0.878036
 C        -1.961352         1.885850        -0.917673
 H        -0.417490         0.076931         1.261093
 H        -3.457273        -0.165126        -1.145867
 H        -3.709333        -0.122394         0.751092
 H        -4.190964         2.444990        -0.185765
 H        -2.885221         1.556836         2.180700
 H        -2.450444         4.179640         1.599300
 H        -1.440267         3.271701         2.548410
 H        -0.545643         4.596409         0.143930
 H         0.092973         2.916269         0.654590
 H        -1.994698         1.600199        -1.948439
