19
Iteration:   976
 O        -0.688255        -0.089050         0.358400
 C        -1.800636         0.827146         0.213288
 C        -3.243210         0.329571         0.018154
 C        -3.361435         1.880127         0.019589
 C        -2.378717         1.903021         1.255002
 C        -1.765597         3.289198         1.476891
 C        -0.907803         3.742623         0.221324
 O        -1.222716         3.084620        -1.064975
 C        -1.962620         1.921303        -0.929342
 H        -0.000906         0.590766         0.421858
 H        -3.513701        -0.150604        -0.900593
 H        -3.676440        -0.247398         0.838655
 H        -4.249273         2.517509        -0.283692
 H        -3.055581         1.583993         2.086118
 H        -2.565656         3.975082         1.693607
 H        -1.071229         3.318962         2.291165
 H        -0.883170         4.773173         0.040337
 H         0.050185         3.375917         0.428476
 H        -2.012045         1.331217        -1.908511
