19
Iteration:  1933charge 0 multiplicity 1
 O        -0.561027         0.358984         0.425783
 C        -1.795997         0.871976         0.184191
 C        -3.121312         0.248390         0.029315
 C        -3.390523         1.782314        -0.060774
 C        -2.563822         1.999804         1.166117
 C        -1.648932         3.213701         1.412263
 C        -0.686954         3.339607         0.231279
 O        -1.458664         3.225839        -0.970447
 C        -2.103636         1.883210        -0.955936
 H        -0.806234        -0.448973         0.938199
 H        -3.380160        -0.318671        -0.946276
 H        -3.598909        -0.420679         0.813766
 H        -4.266300         2.297128        -0.515421
 H        -2.999201         1.523112         2.097955
 H        -2.247612         4.105798         1.621128
 H        -1.006089         3.026583         2.384122
 H        -0.184166         4.355181         0.468751
 H         0.108659         2.629625         0.406016
 H        -2.169014         1.567421        -1.932000
