19
Iteration:   403charge 0 multiplicity 1
 O        -0.743156         0.047798         0.369120
 C        -1.786476         0.890948         0.149354
 C        -3.194236         0.296346         0.118841
 C        -3.419305         1.815271         0.052174
 C        -2.409834         1.982097         1.225573
 C        -1.852192         3.380053         1.331284
 C        -0.813505         3.545793         0.222241
 O        -1.148056         3.040754        -0.988098
 C        -2.033878         1.893086        -0.950488
 H         0.053653         0.680526         0.341098
 H        -3.315798        -0.297824        -0.794274
 H        -3.412821        -0.202951         1.045728
 H        -4.351098         2.261680         0.052351
 H        -2.863881         1.475185         2.015213
 H        -2.713300         4.036133         1.284485
 H        -1.418497         3.569371         2.277049
 H        -0.324464         4.607178         0.102011
 H         0.181173         3.006038         0.515431
 H        -2.061039         1.522567        -2.021584
