19
Iteration:  2398
 O        -0.617995         0.066462         0.344302
 C        -1.747684         0.852012         0.149728
 C        -3.169339         0.270715         0.010681
 C        -3.350437         1.835247        -0.079472
 C        -2.484679         1.887373         1.202289
 C        -1.729673         3.152811         1.448471
 C        -0.811805         3.648366         0.293186
 O        -1.396825         3.271010        -0.973107
 C        -1.978484         1.870701        -0.934167
 H        -0.820758        -0.282050         1.250763
 H        -3.372780        -0.188031        -0.981429
 H        -3.528339        -0.005188         1.025247
 H        -4.145461         2.503031        -0.423750
 H        -2.945395         1.466069         2.112167
 H        -2.554069         3.808961         1.626275
 H        -1.102619         3.303094         2.384296
 H        -0.787896         4.783776         0.233951
 H         0.182547         3.235972         0.387380
 H        -2.017190         1.493456        -1.947119
