19
Iteration:  4915
 O        -0.498767         0.295056         0.430733
 C        -1.769098         0.816517         0.097855
 C        -3.115080         0.294870        -0.368603
 C        -3.288267         1.820139        -0.246643
 C        -2.580884         1.798649         1.139987
 C        -1.934601         3.045189         1.689515
 C        -0.887239         3.487306         0.546492
 O        -1.305690         3.278487        -0.823960
 C        -1.958870         2.088138        -0.971103
 H        -0.471874        -0.538577        -0.022924
 H        -3.054087        -0.167273        -1.345011
 H        -3.755514        -0.296291         0.276716
 H        -4.166390         2.432760        -0.482512
 H        -3.103722         1.120053         1.835325
 H        -2.676274         3.829179         1.892389
 H        -1.418230         2.871291         2.615667
 H        -0.687589         4.499258         0.811321
 H         0.071186         2.866396         0.716662
 H        -2.047367         1.738092        -1.947739
