19
Iteration:  3432charge 0 multiplicity 1
 O        -0.542058         0.139910         0.372162
 C        -1.840500         0.908842         0.165554
 C        -3.226768         0.305733        -0.106433
 C        -3.366036         1.790829        -0.139962
 C        -2.440460         1.847820         1.222838
 C        -1.750938         3.189783         1.514540
 C        -0.809540         3.565745         0.338701
 O        -1.334129         3.160845        -0.947202
 C        -2.050869         1.941739        -0.957558
 H        -0.391172         0.545750         1.285206
 H        -3.385442        -0.208008        -1.117042
 H        -3.736670        -0.179879         0.793248
 H        -4.355287         2.283243        -0.406428
 H        -2.978321         1.370547         2.074564
 H        -2.407247         3.985797         1.761659
 H        -1.083248         3.157377         2.409043
 H        -0.555815         4.601166         0.318597
 H         0.114630         3.010770         0.331682
 H        -1.975711         1.738733        -2.004204
