19
Iteration:  4654charge 0 multiplicity 1
 O        -0.546053         0.161875         0.336817
 C        -1.751403         0.886928         0.161845
 C        -3.135804         0.243357        -0.251129
 C        -3.320515         1.801234        -0.182199
 C        -2.609426         1.884020         1.133790
 C        -1.908933         3.143776         1.588272
 C        -0.900137         3.579172         0.538822
 O        -1.237880         3.251051        -0.859766
 C        -1.965554         1.978937        -0.918850
 H        -0.416092        -0.196626        -0.518160
 H        -3.169098        -0.372739        -1.181310
 H        -3.625335        -0.245921         0.632805
 H        -4.281071         2.277902        -0.470478
 H        -3.032715         1.308539         1.939192
 H        -2.581663         3.963851         1.882280
 H        -1.369920         2.880857         2.512578
 H        -0.607201         4.658646         0.600256
 H        -0.029249         2.875014         0.817640
 H        -1.835349         1.769488        -1.987024
