19
Iteration:  1281
 O        -0.460898         0.149036         0.434262
 C        -1.748036         0.853809         0.214918
 C        -3.312627         0.377758         0.000239
 C        -3.323004         1.881985        -0.064014
 C        -2.398689         1.887664         1.197319
 C        -1.830513         3.283249         1.414827
 C        -0.781760         3.482392         0.293583
 O        -1.340764         3.137519        -1.024439
 C        -2.109598         1.930861        -0.971757
 H        -0.861097        -0.766428         0.416871
 H        -3.542691        -0.181130        -0.927742
 H        -3.716063        -0.133945         0.891791
 H        -4.211253         2.493290        -0.136472
 H        -2.789399         1.550709         2.143874
 H        -2.766724         3.745017         1.477016
 H        -1.412159         3.434536         2.523628
 H        -0.233941         4.357560         0.161551
 H         0.055348         2.740418         0.505754
 H        -2.231510         1.536502        -1.934924
