19
Iteration:  1758
 O        -0.526655         0.368659         0.551720
 C        -1.815018         0.839907         0.233757
 C        -3.236019         0.304133        -0.110616
 C        -3.364376         1.830691        -0.082608
 C        -2.470936         1.915136         1.222109
 C        -1.652673         3.152431         1.437026
 C        -0.746608         3.418036         0.237341
 O        -1.402756         3.118772        -1.013351
 C        -2.136067         1.916549        -0.896550
 H        -0.290716        -0.020270        -0.393103
 H        -3.389479         0.046162        -1.203613
 H        -3.803882        -0.266158         0.695904
 H        -4.273111         2.407370        -0.451107
 H        -2.981461         1.653347         2.162561
 H        -2.262947         3.964508         1.645360
 H        -1.099629         2.931228         2.468341
 H        -0.391983         4.555693         0.151025
 H         0.116867         2.738170         0.386592
 H        -2.288770         1.401013        -1.848924
