19
Iteration:  1887charge 0 multiplicity 1
 O        -0.587483         0.353400         0.443833
 C        -1.797196         0.926841         0.183403
 C        -3.293482         0.201141        -0.096771
 C        -3.378210         1.853561        -0.016190
 C        -2.445090         1.898946         1.160855
 C        -1.644131         3.199950         1.464024
 C        -0.733103         3.462787         0.255399
 O        -1.402431         3.100518        -1.010512
 C        -2.063498         1.897317        -0.956051
 H        -0.536046        -0.044659         1.285988
 H        -3.536013        -0.371181        -1.021292
 H        -3.579562        -0.487941         0.752531
 H        -4.179320         2.509311        -0.113586
 H        -2.789212         1.612693         2.185685
 H        -2.404686         4.003997         1.714941
 H        -0.984681         3.043580         2.359517
 H        -0.495532         4.531177         0.055802
 H         0.187446         2.927895         0.506494
 H        -2.185348         1.459576        -1.899950
