19
Iteration:  4060charge 0 multiplicity 1
 O        -0.554606         0.210424         0.363248
 C        -1.767439         0.913709         0.216443
 C        -3.265961         0.199862        -0.150671
 C        -3.429749         1.744984        -0.172218
 C        -2.537756         1.924590         1.218927
 C        -1.668118         3.164728         1.502246
 C        -0.821899         3.584795         0.349650
 O        -1.348486         3.215975        -0.930612
 C        -1.965783         1.903677        -0.951341
 H        -0.616038        -0.231833         1.296056
 H        -3.376466        -0.292661        -1.076660
 H        -3.877140        -0.174976         0.689018
 H        -4.255707         2.458854        -0.335431
 H        -2.937631         1.453918         2.143382
 H        -2.244500         4.082247         1.860852
 H        -0.998583         2.878489         2.362834
 H        -0.747409         4.665936         0.314188
 H         0.303377         3.172557         0.344788
 H        -1.915611         1.658747        -1.980872
