19
Iteration:  1567charge 0 multiplicity 1
 O        -0.620827         0.233900         0.496960
 C        -1.849624         0.936727         0.186352
 C        -3.204273         0.278976         0.006579
 C        -3.393723         1.812145        -0.117752
 C        -2.410323         1.839021         1.176174
 C        -1.653919         3.071729         1.462766
 C        -0.769712         3.589578         0.251430
 O        -1.262886         3.163664        -1.043930
 C        -2.161471         1.970296        -1.017012
 H        -0.620265         0.050112         1.405018
 H        -3.304707        -0.326876        -0.956600
 H        -3.781849        -0.215219         0.845669
 H        -4.369106         2.467909        -0.115421
 H        -2.820260         1.424666         2.139315
 H        -2.326049         3.844618         1.768722
 H        -1.163092         2.711702         2.441941
 H        -0.872524         4.659238         0.254323
 H         0.305839         3.216296         0.313685
 H        -2.184089         1.556234        -2.033648
