19
Iteration:  1267charge 0 multiplicity 1
 O        -0.584724         0.080353         0.493953
 C        -1.701096         0.886902         0.191334
 C        -3.250909         0.349964        -0.026039
 C        -3.369807         1.851314        -0.046695
 C        -2.374791         1.889071         1.203480
 C        -1.781711         3.265389         1.429308
 C        -0.819032         3.468197         0.241852
 O        -1.430235         3.229717        -1.011410
 C        -1.983343         1.932198        -0.950935
 H        -0.681402        -0.843834         0.521080
 H        -3.531681        -0.265534        -0.912879
 H        -3.815500        -0.030524         0.891064
 H        -4.253312         2.500487        -0.156283
 H        -2.826918         1.197494         1.982092
 H        -2.290599         4.253605         1.273538
 H        -1.100426         3.299183         2.297629
 H        -0.572207         4.588517         0.255558
 H         0.061683         2.861349         0.397789
 H        -1.977084         1.494151        -2.072418
