19
Iteration:  2223
 O        -0.671935         0.077380         0.342838
 C        -1.737095         0.843204         0.223192
 C        -3.136511         0.323925        -0.044092
 C        -3.321709         1.831831        -0.049223
 C        -2.430842         1.887373         1.219405
 C        -1.753117         3.219489         1.401538
 C        -0.882878         3.644569         0.258688
 O        -1.372781         3.186858        -1.026662
 C        -1.980773         1.913999        -0.830139
 H        -0.643430        -0.307048         1.183130
 H        -3.522465        -0.227688        -0.995859
 H        -3.612422        -0.366448         0.745061
 H        -4.201761         2.466355        -0.338072
 H        -2.907865         1.534174         2.189145
 H        -2.541137         3.986801         1.763496
 H        -1.059244         3.082101         2.280483
 H        -0.596715         4.719223         0.221202
 H         0.152966         3.117140         0.322098
 H        -2.033025         1.523330        -1.885970
