19
Iteration:  3806charge 0 multiplicity 1
 O        -0.615385         0.005586         0.519824
 C        -1.705644         0.895217         0.203170
 C        -3.191814         0.319914        -0.096575
 C        -3.345892         1.852784        -0.039109
 C        -2.451732         1.833628         1.228879
 C        -1.791675         3.218985         1.386438
 C        -0.869671         3.518481         0.344356
 O        -1.319908         3.193955        -1.011251
 C        -2.051940         2.030617        -1.018300
 H         0.244709         0.348706         0.346062
 H        -3.355057        -0.104726        -1.122069
 H        -3.614529        -0.271098         0.683863
 H        -4.334573         2.328191        -0.044893
 H        -2.965798         1.504730         2.169690
 H        -2.764582         3.882495         1.440776
 H        -1.188183         3.417689         2.334743
 H        -0.660021         4.621464         0.409868
 H         0.099068         2.988200         0.301918
 H        -2.191623         1.776869        -2.057402
