19
Iteration:  1591
 O        -0.524689         0.218414         0.444184
 C        -1.812083         0.847522         0.165552
 C        -3.324692         0.333701        -0.166189
 C        -3.365848         1.899891        -0.038784
 C        -2.457488         1.858372         1.220118
 C        -1.617986         3.198530         1.523565
 C        -0.907187         3.617547         0.183303
 O        -1.302432         3.054499        -0.975310
 C        -2.030657         1.835401        -0.909935
 H        -0.536697         0.034310         1.429594
 H        -3.630020         0.022114        -1.205558
 H        -3.732287        -0.380919         0.599667
 H        -4.117164         2.666399        -0.144099
 H        -3.041163         1.567563         2.096652
 H        -2.234173         3.931190         1.905067
 H        -0.872713         2.889804         2.399533
 H        -1.068873         4.722186        -0.049532
 H         0.170103         3.368967         0.351888
 H        -2.102776         1.443581        -1.918391
