19
Iteration:  4299
 O        -0.644746         0.193248         0.359156
 C        -1.820515         0.912852         0.188238
 C        -3.029508         0.310112        -0.198856
 C        -3.396715         1.875555         0.010153
 C        -2.513563         1.803330         1.227295
 C        -1.836020         3.169720         1.469179
 C        -0.816359         3.497053         0.383833
 O        -1.249280         3.126085        -1.000054
 C        -2.065774         1.979293        -0.937500
 H        -0.194648         0.645939         1.186747
 H        -3.213470        -0.121095        -1.194522
 H        -3.420119        -0.361608         0.615054
 H        -4.366819         2.365958        -0.228142
 H        -2.894444         1.172517         2.019101
 H        -2.647947         3.934577         1.608793
 H        -1.180146         3.196080         2.331844
 H        -0.627647         4.579585         0.415563
 H         0.195542         3.063446         0.415410
 H        -2.200770         1.565910        -1.925299
