19
Iteration:  1175charge 0 multiplicity 1
 O        -0.593069         0.191417         0.461287
 C        -1.742623         0.887934         0.225630
 C        -3.318126         0.322954        -0.076931
 C        -3.406555         1.829479        -0.013264
 C        -2.506216         1.889495         1.153523
 C        -1.687236         3.234535         1.514181
 C        -0.798988         3.615438         0.232828
 O        -1.260335         3.022113        -1.017000
 C        -2.076991         1.871581        -0.887708
 H         0.003793         0.402928        -0.306197
 H        -3.632453        -0.091938        -1.036386
 H        -3.703993        -0.193242         0.780297
 H        -4.175140         2.519097        -0.319754
 H        -3.026969         1.513527         2.050804
 H        -2.361628         4.003965         1.948431
 H        -0.947446         2.924828         2.228562
 H        -0.807813         4.686214         0.023861
 H         0.236374         3.288144         0.394920
 H        -2.085516         1.433921        -1.942664
