19
Iteration:  2482charge 0 multiplicity 1
 O        -0.544980         0.284850         0.351105
 C        -1.772105         0.887061         0.137139
 C        -3.139718         0.281400         0.008991
 C        -3.339956         1.807913        -0.085244
 C        -2.513844         1.966439         1.135035
 C        -1.794697         3.270080         1.479051
 C        -0.704982         3.340591         0.323857
 O        -1.442371         3.177158        -0.921836
 C        -2.049601         1.925408        -0.943543
 H        -0.701349        -0.672141         0.444490
 H        -3.501115        -0.404183        -0.729571
 H        -3.451667        -0.158709         1.001851
 H        -4.307619         2.500009        -0.331613
 H        -2.816885         1.402303         2.050814
 H        -2.593470         4.091302         1.524420
 H        -1.384562         3.091499         2.505307
 H        -0.316965         4.353991         0.251846
 H         0.213767         2.687405         0.495699
 H        -2.158119         1.707591        -2.045114
