19
Iteration:   664
 O        -0.730850        -0.073661         0.594789
 C        -1.786242         0.836556         0.257542
 C        -3.186794         0.303200        -0.042244
 C        -3.252360         1.796972        -0.112709
 C        -2.405174         2.017184         1.196999
 C        -1.622958         3.265032         1.358037
 C        -0.748792         3.571703         0.130569
 O        -1.533235         3.247728        -1.023648
 C        -2.016027         1.893722        -0.887902
 H        -0.126420         0.350293         1.171706
 H        -3.456022        -0.142588        -1.049937
 H        -3.649015        -0.137675         0.840149
 H        -4.168055         2.278903        -0.332089
 H        -2.897311         1.669042         2.158155
 H        -2.358395         4.170253         1.466242
 H        -0.984321         3.275916         2.248782
 H        -0.620382         4.676981         0.066020
 H         0.239844         3.135271         0.102798
 H        -2.139001         1.444785        -1.908750
