19
Iteration:  1769
 O        -0.561167         0.264151         0.544034
 C        -1.840754         0.877515         0.239231
 C        -3.173224         0.307823        -0.132644
 C        -3.400659         1.922880        -0.015957
 C        -2.465642         1.888737         1.205858
 C        -1.686303         3.205939         1.480580
 C        -0.742678         3.474332         0.232805
 O        -1.409398         3.055566        -0.993313
 C        -2.099462         1.878265        -0.974035
 H        -0.035487         0.194628        -0.276938
 H        -3.314605        -0.179921        -1.150208
 H        -3.726322        -0.331610         0.624202
 H        -4.383435         2.488818        -0.123376
 H        -2.911774         1.378306         2.080926
 H        -2.390530         3.967742         1.584556
 H        -0.955085         3.228140         2.390634
 H        -0.489250         4.628322         0.114148
 H         0.234957         2.946594         0.248934
 H        -2.194931         1.623923        -2.020860
