19
Iteration:   742charge 0 multiplicity 1
 O        -0.580559         0.230674         0.338921
 C        -1.848608         0.882926         0.265301
 C        -3.299780         0.311788         0.078097
 C        -3.375230         1.823646        -0.064352
 C        -2.535487         1.976002         1.219255
 C        -1.699559         3.266660         1.422428
 C        -0.743498         3.469831         0.251941
 O        -1.268278         3.018326        -0.979701
 C        -2.065085         1.827697        -0.929011
 H         0.144366         0.793731         0.046222
 H        -3.394869        -0.249996        -0.916254
 H        -3.791460        -0.125917         0.964231
 H        -4.197586         2.416487        -0.414304
 H        -3.106652         1.591341         2.161793
 H        -2.515152         4.136235         1.515796
 H        -1.060814         3.424694         2.298171
 H        -0.483055         4.576141        -0.061365
 H         0.261521         3.036466         0.470426
 H        -2.066015         1.431831        -2.029352
