19
Iteration:  3718charge 0 multiplicity 1
 O        -0.606914         0.158599         0.464844
 C        -1.727417         0.834162         0.224984
 C        -3.215586         0.376962        -0.158302
 C        -3.419611         1.847845        -0.037169
 C        -2.432458         1.858101         1.122522
 C        -1.808241         3.217033         1.477567
 C        -0.819463         3.554876         0.331695
 O        -1.334617         3.127975        -0.983288
 C        -1.994913         1.908848        -0.890994
 H         0.033843         0.248118        -0.217249
 H        -3.305628        -0.235311        -1.097629
 H        -3.610823        -0.254059         0.606509
 H        -4.315006         2.347307        -0.300067
 H        -2.716311         1.356423         2.082078
 H        -2.660944         3.985051         1.541425
 H        -1.325421         3.267429         2.488533
 H        -0.471904         4.635172         0.239537
 H         0.145274         3.023148         0.681460
 H        -2.293560         1.593271        -1.865389
