19
Iteration:  3648charge 0 multiplicity 1
 O        -0.585238         0.124878         0.456094
 C        -1.786512         0.811817         0.158746
 C        -3.156435         0.333737        -0.051765
 C        -3.283031         1.835312        -0.233734
 C        -2.451890         1.924097         1.156832
 C        -1.684780         3.163726         1.582195
 C        -0.870221         3.640162         0.352347
 O        -1.454305         3.192196        -0.963948
 C        -1.976578         1.911531        -0.976658
 H        -0.671818        -0.798878         0.494103
 H        -3.283590        -0.174156        -0.979802
 H        -3.806450        -0.046450         0.781521
 H        -4.213645         2.476519        -0.434194
 H        -3.016992         1.540725         2.011284
 H        -2.547747         3.957200         1.780534
 H        -1.244616         2.946404         2.556730
 H        -0.687420         4.707268         0.377996
 H         0.129917         3.130326         0.391213
 H        -2.103778         1.474703        -2.007075
