19
Iteration:   227
 O        -0.686497        -0.113472         0.350074
 C        -1.755136         0.834402         0.282573
 C        -3.193886         0.307437         0.058518
 C        -3.326932         1.835223         0.012760
 C        -2.373871         2.045018         1.206014
 C        -1.803236         3.455676         1.186672
 C        -0.773682         3.511805         0.233766
 O        -1.363102         3.119223        -0.960466
 C        -2.054572         1.913615        -0.830918
 H        -0.018200         0.226739         1.020286
 H        -3.354606        -0.146693        -0.898481
 H        -3.643725        -0.248347         0.945742
 H        -4.220430         2.337161        -0.091176
 H        -2.670829         1.695984         2.172993
 H        -2.620024         4.113722         0.780351
 H        -1.524434         3.838111         2.203050
 H        -0.433192         4.544867         0.026738
 H         0.194009         2.950815         0.397803
 H        -2.138703         1.473256        -1.880894
