19
Iteration:  4685
 O        -0.519694         0.203586         0.449747
 C        -1.738858         0.858734         0.117829
 C        -3.162884         0.348447        -0.441581
 C        -3.353125         1.849735        -0.058854
 C        -2.496780         1.790114         1.134548
 C        -1.802573         3.040162         1.488832
 C        -0.937870         3.589542         0.451606
 O        -1.294436         3.219445        -0.795083
 C        -1.999338         2.026643        -0.913892
 H        -0.929844        -0.576520         1.027838
 H        -3.101126        -0.082990        -1.473711
 H        -3.704192        -0.427222         0.166293
 H        -4.335313         2.327299        -0.276122
 H        -2.662162         1.165717         2.003876
 H        -2.683673         3.759364         1.441393
 H        -1.483883         3.182308         2.540020
 H        -0.830780         4.651931         0.792195
 H         0.089207         3.185246         0.703142
 H        -2.022307         1.740877        -2.036224
