19
Iteration:  3521charge 0 multiplicity 1
 O        -0.553509         0.044013         0.409328
 C        -1.750464         0.874939         0.164229
 C        -3.193945         0.266818        -0.168825
 C        -3.326606         1.889702        -0.040055
 C        -2.455523         1.845140         1.198761
 C        -1.778105         3.223754         1.557672
 C        -0.903168         3.636779         0.361073
 O        -1.307173         3.196209        -1.023319
 C        -2.001173         1.986514        -0.955943
 H        -1.006332        -0.717174         0.936289
 H        -3.125844        -0.246792        -1.225893
 H        -3.757930        -0.250313         0.640629
 H        -4.177619         2.493049        -0.229231
 H        -2.978343         1.368221         2.046880
 H        -2.591087         3.865906         1.604650
 H        -1.211764         3.157016         2.527129
 H        -0.916317         4.697315         0.214993
 H         0.087120         3.252456         0.581083
 H        -2.229435         1.583350        -1.976052
