19
Iteration:  3136
 O        -0.696407         0.106305         0.509612
 C        -1.767309         0.864000         0.199013
 C        -3.167952         0.287282        -0.132473
 C        -3.397106         1.770198        -0.014270
 C        -2.478658         1.872006         1.212149
 C        -1.637505         3.129688         1.424787
 C        -0.823247         3.659179         0.243270
 O        -1.338739         3.218539        -0.998179
 C        -2.063384         1.945979        -0.894032
 H        -0.011308         0.261586        -0.162281
 H        -3.280389        -0.081531        -1.090756
 H        -3.474924        -0.406463         0.638464
 H        -4.463940         2.140917         0.008903
 H        -2.980156         1.495843         2.156532
 H        -2.225694         4.077178         1.557858
 H        -1.057128         2.991465         2.413311
 H        -0.621106         4.738160         0.141676
 H         0.253104         3.391613         0.303773
 H        -2.156365         1.578418        -1.902873
