19
Iteration:  1865charge 0 multiplicity 1
 O        -0.576197         0.110632         0.399876
 C        -1.762392         0.867822         0.194935
 C        -3.213349         0.369606        -0.011702
 C        -3.386492         1.845855        -0.037102
 C        -2.426000         1.860246         1.213039
 C        -1.735758         3.183586         1.394263
 C        -0.800773         3.597482         0.239012
 O        -1.293121         3.135026        -1.012644
 C        -2.134050         1.931230        -0.926800
 H        -0.334525        -0.120943         1.364757
 H        -3.510048        -0.163365        -0.950447
 H        -3.703609        -0.256295         0.806918
 H        -4.350388         2.151254        -0.235345
 H        -2.686395         1.531063         2.261572
 H        -2.529507         3.998114         1.351532
 H        -1.169529         3.291483         2.363799
 H        -0.699013         4.714719         0.158327
 H         0.206011         3.179064         0.483385
 H        -2.399692         1.599808        -1.892557
