19
Iteration:   943charge 0 multiplicity 1
 O        -0.679463        -0.000548         0.400497
 C        -1.792281         0.840906         0.115276
 C        -3.181708         0.321718         0.001934
 C        -3.372466         1.843099         0.040580
 C        -2.387923         1.938495         1.232318
 C        -1.832159         3.391480         1.386511
 C        -0.768657         3.626434         0.279529
 O        -1.306800         3.064384        -0.951844
 C        -2.000800         1.891719        -0.894941
 H        -0.065466        -0.093232        -0.433756
 H        -3.503510        -0.104958        -0.914936
 H        -3.487941        -0.195212         0.922142
 H        -4.170531         2.511797        -0.396871
 H        -2.828050         1.464294         2.142567
 H        -2.729779         4.027966         1.282542
 H        -1.436978         3.601352         2.394208
 H        -0.510334         4.625129         0.070926
 H         0.153201         3.123419         0.500232
 H        -2.204531         1.490802        -1.968751
