19
Iteration:   523charge 0 multiplicity 1
 O        -0.704634         0.099875         0.685435
 C        -1.751359         0.874254         0.342162
 C        -3.221359         0.304389        -0.150272
 C        -3.333407         1.783354        -0.121980
 C        -2.402803         2.010509         1.184553
 C        -1.547878         3.264895         1.313839
 C        -0.748095         3.528539         0.161974
 O        -1.543604         3.175013        -0.990150
 C        -2.032267         1.867203        -0.836119
 H        -0.430792        -0.314102        -0.113013
 H        -3.190834        -0.137810        -1.164718
 H        -3.839587        -0.234176         0.520831
 H        -4.127317         2.424016        -0.312423
 H        -2.880590         1.670856         2.137420
 H        -2.324328         4.015533         1.537195
 H        -0.906007         3.198725         2.191235
 H        -0.617252         4.685595        -0.032235
 H         0.142075         2.919271         0.059320
 H        -2.011700         1.503300        -1.958012
