19
Iteration:  3859charge 0 multiplicity 1
 O        -0.668169        -0.072413         0.375984
 C        -1.747008         0.796737         0.243103
 C        -3.173876         0.297854        -0.079288
 C        -3.295916         1.912859        -0.133691
 C        -2.519017         1.904098         1.204259
 C        -1.744428         3.225451         1.558056
 C        -0.876440         3.770931         0.272023
 O        -1.348738         3.149183        -1.043742
 C        -1.963642         1.884906        -0.874293
 H         0.054476         0.226950         0.900741
 H        -3.363718        -0.237324        -1.041656
 H        -3.716202        -0.152556         0.707974
 H        -4.162335         2.451033        -0.484213
 H        -2.921469         1.428236         2.161746
 H        -2.461313         3.969032         2.040446
 H        -1.121692         3.042402         2.472857
 H        -1.029087         4.893818         0.148204
 H         0.177400         3.798335         0.118996
 H        -1.940251         1.553175        -1.924092
