19
Iteration:  4149
 O        -0.680944         0.131437         0.302583
 C        -1.747994         0.961816         0.267196
 C        -3.025205         0.321625        -0.059073
 C        -3.375136         1.800397        -0.184199
 C        -2.569839         1.934776         1.191884
 C        -1.801589         3.198261         1.552335
 C        -0.800298         3.507811         0.340127
 O        -1.318409         3.128694        -0.956111
 C        -2.023948         1.927344        -0.919465
 H         0.188389         0.636213         0.524820
 H        -3.237398        -0.251439        -0.943351
 H        -3.684759        -0.174369         0.640088
 H        -4.356153         2.216253        -0.377129
 H        -3.119741         1.567363         2.100944
 H        -2.546571         4.001002         1.710921
 H        -1.240735         3.017114         2.517478
 H        -0.478334         4.531364         0.104771
 H         0.088925         2.729392         0.506004
 H        -2.094250         1.467528        -1.893157
