19
Iteration:  3135
 O        -0.690124         0.106143         0.513426
 C        -1.765975         0.859162         0.196447
 C        -3.174039         0.293782        -0.139166
 C        -3.405229         1.781606        -0.015488
 C        -2.464936         1.856628         1.219517
 C        -1.642865         3.138834         1.424495
 C        -0.819849         3.657496         0.242960
 O        -1.342425         3.211707        -0.996410
 C        -2.070659         1.947938        -0.903401
 H        -0.010705         0.209763        -0.123068
 H        -3.261972        -0.091452        -1.093729
 H        -3.460660        -0.416897         0.628974
 H        -4.443292         2.113089         0.009303
 H        -2.969346         1.535798         2.132102
 H        -2.205797         4.113914         1.571409
 H        -1.079459         2.992903         2.403371
 H        -0.641710         4.761369         0.175540
 H         0.277963         3.417578         0.309947
 H        -2.164159         1.577386        -1.882014
