19
Iteration:  4738charge 0 multiplicity 1
 O        -0.605965         0.110221         0.397653
 C        -1.702631         0.905422         0.180696
 C        -3.077269         0.312462        -0.273538
 C        -3.340534         1.772178        -0.257158
 C        -2.635301         1.864178         1.025004
 C        -1.841965         3.105678         1.573214
 C        -0.800753         3.536902         0.489956
 O        -1.427337         3.299653        -0.688666
 C        -1.969660         2.001602        -0.963870
 H         0.160902         0.423282        -0.154384
 H        -3.114728        -0.157496        -1.259985
 H        -3.414748        -0.292640         0.566358
 H        -4.174723         2.372040        -0.656863
 H        -3.151321         1.252421         1.842536
 H        -2.503510         3.943353         1.860954
 H        -1.370417         2.613724         2.451382
 H        -0.456923         4.583896         0.618523
 H         0.058279         2.923056         0.745336
 H        -1.687327         1.532240        -1.937594
