19
Iteration:  2748charge 0 multiplicity 1
 O        -0.598943         0.123777         0.445140
 C        -1.754546         0.818128         0.137836
 C        -3.138728         0.275265        -0.119498
 C        -3.410500         1.794851        -0.079000
 C        -2.497507         1.932403         1.181663
 C        -1.696989         3.270504         1.589543
 C        -0.811945         3.608749         0.297215
 O        -1.386096         3.178689        -1.002551
 C        -2.026799         1.985800        -0.916004
 H        -0.753384        -0.873376         0.448962
 H        -3.117716        -0.191989        -1.105799
 H        -3.690181        -0.336857         0.524483
 H        -4.337711         2.268248        -0.224186
 H        -2.800317         1.493656         2.231566
 H        -2.435444         4.072709         1.809026
 H        -1.074575         3.157722         2.474169
 H        -0.524394         4.708206        -0.030477
 H         0.060720         2.881312         0.281902
 H        -2.118207         1.487570        -1.887509
