19
Iteration:  3555
 O        -0.572404         0.126945         0.216927
 C        -1.779270         0.898904         0.255913
 C        -3.173801         0.239811        -0.086499
 C        -3.385917         1.819464        -0.154504
 C        -2.530526         1.930830         1.158648
 C        -1.800561         3.248054         1.467931
 C        -0.755659         3.480536         0.406614
 O        -1.369223         3.192224        -0.867264
 C        -2.016489         1.954582        -0.890796
 H        -0.185695         0.085782         1.177403
 H        -3.056410        -0.564659        -0.970968
 H        -3.762466        -0.280775         0.694208
 H        -4.185881         2.430783        -0.439228
 H        -3.027629         1.497716         2.028463
 H        -2.509091         4.037508         1.373623
 H        -1.387773         3.426478         2.519846
 H        -0.409851         4.511562         0.267714
 H         0.165897         2.911061         0.561530
 H        -1.867717         1.699291        -1.996520
