19
Iteration:  1505
 O        -0.556510         0.236126         0.377830
 C        -1.777235         0.819770         0.175369
 C        -3.204517         0.307021        -0.031825
 C        -3.360163         1.825460        -0.021376
 C        -2.474195         1.928417         1.260816
 C        -1.836835         3.292330         1.375977
 C        -0.698895         3.408308         0.312407
 O        -1.331099         3.185159        -0.998828
 C        -2.075131         1.928677        -0.906951
 H        -0.783961        -0.653617         0.531610
 H        -3.467641        -0.142992        -0.976766
 H        -3.695801        -0.108079         0.843242
 H        -4.254613         2.312024        -0.280059
 H        -2.782169         1.486724         2.202246
 H        -2.600084         4.139246         1.245230
 H        -1.347587         3.337971         2.423200
 H        -0.175575         4.398185         0.017947
 H        -0.006957         2.605492         0.595660
 H        -2.151404         1.500043        -1.936687
