19
Iteration:  1407charge 0 multiplicity 1
 O        -0.762981        -0.048971         0.577074
 C        -1.828874         0.931946         0.187145
 C        -3.085336         0.204684        -0.085299
 C        -3.403585         1.890293        -0.064615
 C        -2.349946         1.943851         1.190279
 C        -1.617836         3.197974         1.425053
 C        -0.814330         3.655722         0.219649
 O        -1.361842         3.215714        -1.020487
 C        -2.118454         1.938736        -0.965191
 H         0.030775         0.459925         0.719285
 H        -3.148530        -0.325008        -1.012429
 H        -3.650980        -0.261237         0.710446
 H        -4.438358         2.173754        -0.156110
 H        -2.737236         1.452148         2.102017
 H        -2.340011         4.049274         1.869287
 H        -0.901631         2.835363         2.173519
 H        -0.875565         4.835067         0.349004
 H         0.203495         3.244580         0.162277
 H        -2.128185         1.434159        -2.003391
