19
Iteration:  4109
 O        -0.612497         0.089398         0.374844
 C        -1.735869         0.806210         0.184760
 C        -3.256724         0.315986        -0.112399
 C        -3.292024         1.780690        -0.018713
 C        -2.437816         1.812884         1.195600
 C        -1.906889         3.212486         1.390349
 C        -0.759355         3.588101         0.319664
 O        -1.326293         3.251183        -0.947829
 C        -2.025707         1.989521        -0.902312
 H        -0.266609         0.284944         1.214450
 H        -3.406862        -0.084700        -1.199736
 H        -3.531854        -0.246102         0.788141
 H        -4.233065         2.325192        -0.136628
 H        -2.911775         1.286455         2.011022
 H        -2.660228         4.031751         1.378873
 H        -1.327767         3.214715         2.394807
 H        -0.322669         4.641828         0.325229
 H         0.085642         2.990254         0.453215
 H        -2.028190         1.760614        -2.045280
