19
Iteration:   251charge 0 multiplicity 1
 O        -0.722561        -0.010565         0.396537
 C        -1.789202         0.885870         0.220558
 C        -3.148846         0.280043         0.107127
 C        -3.430914         1.777678        -0.011124
 C        -2.384268         2.000893         1.198570
 C        -1.767893         3.429599         1.349267
 C        -0.705311         3.503400         0.236595
 O        -1.301544         3.131679        -1.061132
 C        -2.089557         1.895739        -0.979496
 H        -0.188775         0.378933         1.155031
 H        -3.369919        -0.540622        -0.672391
 H        -3.490476         0.025061         1.133022
 H        -4.340590         2.228402        -0.124148
 H        -2.903388         1.647596         2.155117
 H        -2.654203         4.141290         1.293661
 H        -1.230155         3.528781         2.414612
 H        -0.435522         4.615867        -0.021447
 H         0.226265         3.034603         0.512757
 H        -2.034813         1.443018        -1.977104
