19
Iteration:  2528
 O        -0.571937         0.139319         0.310324
 C        -1.774010         0.867555         0.164611
 C        -3.161217         0.273043        -0.105578
 C        -3.318469         1.859026         0.049700
 C        -2.557722         1.858605         1.278021
 C        -1.797297         3.240563         1.397067
 C        -0.792059         3.580727         0.314201
 O        -1.292862         3.166691        -1.012934
 C        -2.051840         1.939193        -0.873626
 H        -0.690270        -0.679100         0.938864
 H        -3.379892        -0.143360        -1.111230
 H        -3.583565        -0.434320         0.680886
 H        -4.424025         2.270682         0.144797
 H        -3.063709         1.599045         2.188478
 H        -2.627861         4.013575         1.319418
 H        -1.164596         3.437233         2.372901
 H        -0.512091         4.667116         0.080060
 H         0.219573         3.083286         0.516377
 H        -2.095866         1.595002        -1.884177
