19
Iteration:  2327charge 0 multiplicity 1
 O        -0.520586         0.327689         0.289742
 C        -1.795377         0.903845         0.182954
 C        -3.238043         0.271460        -0.042220
 C        -3.437780         1.855828        -0.082473
 C        -2.423328         1.916581         1.230585
 C        -1.742802         3.233778         1.496629
 C        -0.740255         3.478990         0.383564
 O        -1.294254         3.089536        -1.004471
 C        -2.132250         1.841457        -0.937042
 H        -0.617096        -0.362736         1.015478
 H        -3.396432        -0.270806        -0.965688
 H        -3.538657        -0.267739         0.841652
 H        -4.453910         2.266821        -0.330339
 H        -2.886523         1.457841         2.113810
 H        -2.619932         3.967682         1.305949
 H        -1.475774         3.400391         2.544726
 H        -0.364235         4.479868         0.391686
 H         0.122448         2.772347         0.473855
 H        -2.203362         1.591632        -2.042975
