19
Iteration:   154charge 0 multiplicity 1
 O        -0.628718         0.366166         0.632445
 C        -1.883050         0.790428         0.275710
 C        -3.362866         0.231072        -0.033102
 C        -3.437951         1.830951        -0.112902
 C        -2.474474         2.021601         1.197999
 C        -1.437877         3.134945         1.409674
 C        -0.843955         3.614901         0.162586
 O        -1.285164         3.052511        -1.051296
 C        -2.039873         1.784354        -0.935573
 H        -0.119571        -0.056152        -0.128174
 H        -3.612614        -0.387237        -0.990072
 H        -3.862764        -0.111533         0.873651
 H        -4.275907         2.375722        -0.499310
 H        -3.111441         1.992732         2.195399
 H        -1.772006         3.946769         2.077771
 H        -0.643108         2.589522         2.028879
 H        -1.030090         4.787805         0.067172
 H         0.265287         3.624768         0.107296
 H        -2.054099         1.366232        -1.892222
