19
Iteration:   758charge 0 multiplicity 1
 O        -0.585182         0.087541         0.290866
 C        -1.782906         0.846860         0.296316
 C        -3.182452         0.305770        -0.019036
 C        -3.431460         1.915075        -0.017086
 C        -2.531767         2.046429         1.247367
 C        -1.808402         3.382089         1.396519
 C        -0.823504         3.555338         0.241481
 O        -1.207149         2.917187        -1.011967
 C        -2.065785         1.867447        -0.827585
 H         0.081605         0.499550        -0.385757
 H        -3.340764        -0.213952        -0.939368
 H        -3.620698        -0.162063         0.865801
 H        -4.404060         2.476830        -0.129266
 H        -2.846606         1.670971         2.161468
 H        -2.370481         4.268099         1.606102
 H        -1.285426         3.092913         2.373213
 H        -0.561855         4.549563         0.135841
 H         0.111490         3.060227         0.517936
 H        -2.166456         1.371024        -1.781197
