19
Iteration:  3655
 O        -0.613883         0.082477         0.484658
 C        -1.764142         0.855521         0.145041
 C        -3.149745         0.345511        -0.050452
 C        -3.282622         1.832657        -0.191952
 C        -2.446418         1.921067         1.160085
 C        -1.690979         3.185545         1.547635
 C        -0.949795         3.571165         0.348365
 O        -1.428796         3.231839        -0.950598
 C        -1.920222         1.912774        -0.989802
 H        -0.754663        -0.870350         0.296798
 H        -3.453505        -0.348886        -0.940616
 H        -3.627504        -0.192594         0.819541
 H        -4.152932         2.473294        -0.421792
 H        -2.918519         1.463904         2.046645
 H        -2.389512         3.957400         1.714824
 H        -1.193002         3.025018         2.561131
 H        -0.870579         4.699576         0.164715
 H         0.053503         3.211268         0.412057
 H        -2.155480         1.792806        -2.119414
