19
Iteration:  4871charge 0 multiplicity 1
 O        -0.699372         0.080909         0.467715
 C        -1.721199         0.943370         0.073501
 C        -3.010664         0.222844        -0.388110
 C        -3.340899         1.854996        -0.191282
 C        -2.502960         1.714023         1.178408
 C        -1.874227         3.083639         1.583769
 C        -0.895958         3.537786         0.545855
 O        -1.319508         3.365513        -0.784477
 C        -1.989973         2.080341        -0.988129
 H         0.156593         0.249696         0.053480
 H        -2.968782        -0.107600        -1.438647
 H        -3.402004        -0.559327         0.244887
 H        -4.288247         2.378584        -0.333258
 H        -3.012396         1.256407         2.043548
 H        -2.733856         3.773041         1.604114
 H        -1.497687         3.038457         2.578627
 H        -0.661338         4.609479         0.556060
 H         0.147186         3.001744         0.720794
 H        -2.007008         1.705197        -2.017784
