19
Iteration:  3112charge 0 multiplicity 1
 O        -0.586708         0.105858         0.591359
 C        -1.747851         0.852125         0.163490
 C        -3.217306         0.301095        -0.160231
 C        -3.315829         1.874076        -0.038434
 C        -2.349270         1.863685         1.167666
 C        -1.673404         3.170490         1.516930
 C        -0.948541         3.637299         0.248230
 O        -1.376988         3.133340        -0.994764
 C        -2.132166         1.957559        -0.936620
 H        -0.317922        -0.274763        -0.341917
 H        -3.386218        -0.027562        -1.147911
 H        -3.812633        -0.232473         0.583514
 H        -4.091894         2.571287        -0.166961
 H        -2.555629         1.280393         2.024429
 H        -2.535516         3.957950         1.674885
 H        -1.064808         3.240522         2.453552
 H        -0.506355         4.636680         0.020047
 H         0.075489         3.180625         0.450309
 H        -2.370222         1.688800        -1.914699
