19
Iteration:  1627charge 0 multiplicity 1
 O        -0.633743         0.080529         0.296773
 C        -1.802269         0.843236         0.221064
 C        -3.197489         0.290244         0.023341
 C        -3.346271         1.865125        -0.084874
 C        -2.481535         1.953651         1.216176
 C        -1.748419         3.193665         1.447764
 C        -0.909074         3.714309         0.206420
 O        -1.238500         3.075779        -0.947070
 C        -1.989969         1.914073        -0.901196
 H        -0.843211        -0.592237         0.991974
 H        -3.408246        -0.273858        -0.875974
 H        -3.451849        -0.212909         0.951944
 H        -4.180222         2.510182        -0.255623
 H        -2.999198         1.501394         2.066017
 H        -2.453633         3.997189         1.802680
 H        -0.980818         3.060160         2.314317
 H        -0.974786         4.861303         0.183052
 H         0.171179         3.580863         0.318193
 H        -1.816293         1.499320        -1.940235
