19
Iteration:  3014
 O        -0.541680         0.279640         0.326728
 C        -1.785814         0.861439         0.211098
 C        -3.279963         0.230342        -0.071443
 C        -3.388096         1.898348         0.017601
 C        -2.475419         1.858669         1.177380
 C        -1.797507         3.152659         1.417901
 C        -0.748128         3.439863         0.292432
 O        -1.317952         3.174017        -1.013780
 C        -2.045135         1.943591        -0.902474
 H        -0.222428         0.401945         1.301950
 H        -3.252719        -0.329324        -0.938708
 H        -3.686878        -0.264991         0.824972
 H        -4.259596         2.475198        -0.115711
 H        -2.865956         1.244896         2.110514
 H        -2.562774         3.927204         1.529017
 H        -1.219028         3.313803         2.393920
 H        -0.488706         4.524724         0.497043
 H         0.182476         2.846466         0.298535
 H        -2.225009         1.711576        -1.926185
