19
Iteration:  1511charge 0 multiplicity 1
 O        -0.521848         0.219836         0.371995
 C        -1.826482         0.835593         0.187553
 C        -3.212183         0.302695        -0.066920
 C        -3.324917         1.867370        -0.060401
 C        -2.487087         1.919895         1.282323
 C        -1.740095         3.330726         1.413362
 C        -0.751282         3.390411         0.311657
 O        -1.411442         3.172684        -0.992135
 C        -2.020916         1.913454        -0.914378
 H        -0.657440        -0.745369         0.659704
 H        -3.402227        -0.260197        -1.030466
 H        -3.687169        -0.135849         0.843722
 H        -4.291862         2.471319        -0.287991
 H        -2.901043         1.467516         2.220390
 H        -2.445590         4.098970         1.100212
 H        -1.549434         3.591379         2.453472
 H        -0.196359         4.283142         0.282745
 H        -0.003575         2.568520         0.405157
 H        -2.168738         1.394438        -1.861233
