19
Iteration:  1273charge 0 multiplicity 1
 O        -0.512056         0.091189         0.472945
 C        -1.697304         0.910007         0.191632
 C        -3.310353         0.374947        -0.001018
 C        -3.357831         1.861747        -0.077413
 C        -2.379065         1.852568         1.195287
 C        -1.821638         3.282931         1.439671
 C        -0.787730         3.476315         0.256649
 O        -1.381398         3.197368        -1.020813
 C        -2.057407         1.913922        -0.969454
 H        -0.647085        -0.866117         0.514399
 H        -3.538379        -0.171139        -0.913286
 H        -3.821865         0.051847         0.881811
 H        -4.283939         2.463645         0.027087
 H        -2.787516         1.339858         2.062281
 H        -2.603169         4.099543         1.422993
 H        -1.262296         3.412161         2.394639
 H        -0.438358         4.511725         0.233413
 H         0.006060         2.686218         0.366277
 H        -1.982873         1.518298        -1.946870
