19
Iteration:  2541charge 0 multiplicity 1
 O        -0.581343         0.134770         0.329012
 C        -1.779450         0.871478         0.224089
 C        -3.199133         0.342552        -0.065811
 C        -3.416829         1.838451        -0.032402
 C        -2.358891         1.858397         1.223497
 C        -1.792797         3.208692         1.435974
 C        -0.845754         3.590511         0.295821
 O        -1.280928         3.117956        -0.977291
 C        -2.056348         1.952153        -0.942638
 H        -0.688901        -0.421165         1.085909
 H        -3.330501        -0.113599        -1.124265
 H        -3.653952        -0.313954         0.739575
 H        -4.273016         2.442180        -0.248430
 H        -2.719404         1.342924         2.098465
 H        -2.590797         3.981816         1.525259
 H        -1.255374         3.291095         2.491377
 H        -0.919918         4.728929         0.330086
 H         0.184112         3.209226         0.460418
 H        -2.155347         1.588901        -1.951256
