19
Iteration:  1055charge 0 multiplicity 1
 O        -0.561778         0.150276         0.556850
 C        -1.872828         0.817082         0.233452
 C        -3.227545         0.353372        -0.104177
 C        -3.412376         1.922548        -0.102846
 C        -2.422512         1.880531         1.130522
 C        -1.536316         3.103903         1.517642
 C        -0.842825         3.630249         0.225984
 O        -1.415769         3.136303        -1.043704
 C        -2.078349         1.823513        -0.957325
 H        -0.366183         0.622388         1.358364
 H        -3.483431        -0.129083        -1.050336
 H        -3.770359        -0.019598         0.752999
 H        -4.264685         2.582921        -0.321551
 H        -2.695954         1.359867         2.067527
 H        -2.065942         3.932533         1.963261
 H        -0.788946         2.814298         2.124665
 H        -0.824007         4.716333         0.137769
 H         0.177809         3.328411         0.216980
 H        -2.164238         1.552366        -2.077947
