19
Iteration:  1280
 O        -0.462787         0.140627         0.440837
 C        -1.739298         0.864138         0.211180
 C        -3.316429         0.381697         0.000849
 C        -3.326423         1.878907        -0.070382
 C        -2.396695         1.878916         1.194672
 C        -1.829323         3.284409         1.419497
 C        -0.780639         3.479815         0.288514
 O        -1.345369         3.147011        -1.024779
 C        -2.106750         1.928677        -0.969159
 H        -0.850109        -0.805892         0.430413
 H        -3.543202        -0.177566        -0.933261
 H        -3.740365        -0.113164         0.911695
 H        -4.216648         2.478042        -0.093479
 H        -2.785441         1.529116         2.158711
 H        -2.770649         3.779410         1.493570
 H        -1.411351         3.442677         2.509561
 H        -0.243071         4.391820         0.170649
 H         0.038875         2.736690         0.472010
 H        -2.187760         1.512033        -1.978990
