19
Iteration:  3211
 O        -0.636139         0.142386         0.316307
 C        -1.788976         0.889282         0.263963
 C        -3.084322         0.226501        -0.098884
 C        -3.477004         1.817362         0.073605
 C        -2.425287         1.849429         1.260618
 C        -1.806401         3.241764         1.406930
 C        -0.693201         3.447488         0.306307
 O        -1.302823         3.155234        -1.008085
 C        -2.134365         2.084919        -0.937119
 H         0.046569         0.453895         0.977899
 H        -3.283797        -0.148743        -1.080503
 H        -3.709723        -0.284545         0.676642
 H        -4.482005         2.006004        -0.248343
 H        -2.862714         1.498238         2.137265
 H        -2.559389         4.015069         1.131124
 H        -1.393758         3.472052         2.375648
 H        -0.457077         4.549592         0.227248
 H         0.296929         2.922669         0.201868
 H        -2.253215         1.796526        -1.932414
