19
Iteration:  4067
 O        -0.591405         0.179912         0.387245
 C        -1.752656         0.939925         0.189739
 C        -3.222647         0.258183        -0.178818
 C        -3.367602         1.762929        -0.103442
 C        -2.520638         1.874799         1.208670
 C        -1.711929         3.244776         1.512829
 C        -0.809001         3.540989         0.290463
 O        -1.347432         3.181353        -0.919938
 C        -1.999617         1.915651        -0.961787
 H        -0.493999        -0.143098         1.345488
 H        -3.234808        -0.148712        -1.239094
 H        -3.777734        -0.319623         0.585039
 H        -4.241389         2.437534        -0.231606
 H        -2.995603         1.444499         2.129771
 H        -2.334305         3.910659         2.061241
 H        -1.092208         2.851538         2.267085
 H        -0.762529         4.665188         0.243406
 H         0.191327         3.246490         0.567781
 H        -2.222382         1.558305        -2.001385
