19
Iteration:  3607
 O        -0.574175         0.338316         0.377585
 C        -1.818353         0.895237         0.173468
 C        -3.102844         0.289007        -0.199113
 C        -3.398792         1.850851        -0.036724
 C        -2.541064         1.852746         1.217541
 C        -1.766065         3.149571         1.519100
 C        -0.715384         3.452496         0.378244
 O        -1.263498         3.114137        -1.019240
 C        -2.166722         1.948080        -0.929146
 H        -0.575890         0.128975         1.363382
 H        -3.279214        -0.161969        -1.166884
 H        -3.616255        -0.400005         0.443071
 H        -4.427973         2.153606        -0.238582
 H        -3.061692         1.375406         2.079297
 H        -2.488518         3.965826         1.631613
 H        -1.251437         3.160400         2.486153
 H        -0.468273         4.480018         0.251044
 H         0.286563         2.932081         0.547715
 H        -2.195647         1.603823        -1.914164
