19
Iteration:  2544charge 0 multiplicity 1
 O        -0.594125         0.135921         0.336387
 C        -1.774249         0.894618         0.213254
 C        -3.207459         0.344217        -0.082069
 C        -3.417949         1.829936        -0.037140
 C        -2.325024         1.861216         1.185134
 C        -1.798927         3.201531         1.481028
 C        -0.864515         3.603484         0.290380
 O        -1.277333         3.108535        -0.969874
 C        -2.070602         1.932680        -0.918821
 H        -0.578916        -0.425219         1.133033
 H        -3.302475        -0.227755        -1.074845
 H        -3.745308        -0.147957         0.749218
 H        -4.179757         2.469979        -0.326355
 H        -2.614185         1.348584         2.154235
 H        -2.536620         3.995984         1.555447
 H        -1.306436         3.234518         2.456878
 H        -0.889170         4.695546         0.261853
 H         0.144668         3.210560         0.359062
 H        -2.135588         1.648484        -2.015576
