19
Iteration:  3378
 O        -0.517003         0.213074         0.299001
 C        -1.831149         0.926994         0.297726
 C        -3.068735         0.215072        -0.111989
 C        -3.431923         1.785026        -0.052605
 C        -2.526320         1.943235         1.181903
 C        -1.806646         3.332440         1.488296
 C        -0.730089         3.421566         0.363917
 O        -1.318914         3.182283        -0.980079
 C        -2.109724         1.957700        -0.892522
 H        -0.831992        -0.749443         0.131981
 H        -3.211389        -0.240936        -1.119994
 H        -3.557486        -0.351252         0.736210
 H        -4.419101         2.296183        -0.310660
 H        -3.039701         1.527985         2.069825
 H        -2.436295         4.190833         1.372938
 H        -1.363139         3.168364         2.521305
 H        -0.256081         4.399234         0.391570
 H        -0.003737         2.591693         0.442269
 H        -2.042547         1.595338        -1.930611
