19
Iteration:   674charge 0 multiplicity 1
 O        -0.748093        -0.034263         0.584502
 C        -1.741505         0.866604         0.391318
 C        -3.125408         0.273323        -0.050904
 C        -3.354397         1.879123        -0.120480
 C        -2.436921         1.907861         1.224987
 C        -1.587361         3.274088         1.326823
 C        -0.768569         3.555231         0.067188
 O        -1.530125         3.234447        -0.992530
 C        -2.039600         1.929125        -0.919786
 H        -0.149332         0.351104         1.208089
 H        -3.090253        -0.140603        -1.116645
 H        -3.709957        -0.423704         0.566244
 H        -4.164152         2.562579        -0.306958
 H        -2.994926         1.563644         2.144752
 H        -2.277228         4.163061         1.456438
 H        -0.966712         3.264133         2.213369
 H        -0.362413         4.529380        -0.029592
 H         0.169026         2.883626        -0.008363
 H        -1.966787         1.541645        -1.919578
