19
Iteration:  3495
 O        -0.632045         0.121311         0.553919
 C        -1.758524         0.843842         0.187711
 C        -3.254416         0.320364        -0.191145
 C        -3.300590         1.846445        -0.027652
 C        -2.427683         1.754800         1.129010
 C        -1.716571         3.145621         1.494969
 C        -0.879086         3.764030         0.303776
 O        -1.336471         3.175023        -0.930680
 C        -1.963256         1.947328        -0.991937
 H        -0.563638        -0.597490        -0.152936
 H        -3.422021        -0.083654        -1.197574
 H        -3.756125        -0.273083         0.646617
 H        -4.169470         2.647573        -0.187595
 H        -2.869610         1.263285         2.048583
 H        -2.577488         3.824147         1.800044
 H        -1.129766         2.840924         2.312199
 H        -1.110702         4.838230         0.075465
 H         0.219814         3.577512         0.514194
 H        -2.114007         1.481009        -1.975808
