19
Iteration:  2263charge 0 multiplicity 1
 O        -0.593148         0.201568         0.523275
 C        -1.765047         0.882217         0.181211
 C        -3.164543         0.313787        -0.145425
 C        -3.347310         1.816586        -0.026771
 C        -2.415984         1.903218         1.141008
 C        -1.685826         3.174387         1.430079
 C        -0.755986         3.527905         0.240424
 O        -1.482439         3.194294        -0.946279
 C        -2.081918         1.936291        -0.944089
 H        -0.905584        -0.590569         1.113899
 H        -3.224029        -0.041646        -1.132470
 H        -3.518154        -0.192274         0.728972
 H        -4.326020         2.334225        -0.349187
 H        -2.790478         1.498784         2.059236
 H        -2.423193         3.878876         1.661791
 H        -0.949185         3.007706         2.278916
 H        -0.407051         4.528625         0.125231
 H         0.020061         2.790834         0.358664
 H        -2.264969         1.534821        -1.890662
