19
Iteration:  1967charge 0 multiplicity 1
 O        -0.561251         0.126139         0.391874
 C        -1.724775         0.861564         0.177713
 C        -3.183800         0.292409        -0.027825
 C        -3.345053         1.876406         0.039922
 C        -2.430227         1.917076         1.211711
 C        -1.803390         3.261987         1.361926
 C        -0.788855         3.532533         0.263711
 O        -1.361735         3.162461        -1.008025
 C        -2.105202         1.878859        -0.884381
 H        -0.760695        -0.659430         0.867457
 H        -3.246962        -0.014529        -1.112497
 H        -3.712840        -0.307694         0.745995
 H        -4.168660         2.575551        -0.288098
 H        -2.816343         1.574739         2.196361
 H        -2.630022         3.957442         1.395905
 H        -1.141827         3.383990         2.300697
 H        -0.665683         4.620103         0.096779
 H         0.151563         3.005828         0.485427
 H        -2.256977         1.524245        -1.841477
