19
Iteration:  2522charge 0 multiplicity 1
 O        -0.577434         0.147655         0.302155
 C        -1.755964         0.853467         0.174226
 C        -3.139557         0.239261        -0.157610
 C        -3.341551         1.825873         0.075665
 C        -2.560095         1.899779         1.276935
 C        -1.831951         3.275227         1.430563
 C        -0.756981         3.567726         0.268358
 O        -1.299714         3.171331        -1.004747
 C        -2.056572         1.944517        -0.816644
 H        -0.647095        -0.721930         0.739813
 H        -3.311336        -0.331925        -1.110985
 H        -3.661361        -0.169637         0.694767
 H        -4.253578         2.313757         0.005153
 H        -3.042498         1.657563         2.260735
 H        -2.490516         4.127135         1.343257
 H        -1.388560         3.372399         2.400900
 H        -0.379430         4.574050         0.126075
 H         0.081224         2.887991         0.353516
 H        -2.151616         1.647049        -1.890031
