19
Iteration:  4496charge 0 multiplicity 1
 O        -0.504004         0.190355         0.468111
 C        -1.717181         0.903242         0.097970
 C        -3.093222         0.329877        -0.334321
 C        -3.376303         1.859045        -0.043953
 C        -2.461843         1.789555         1.239438
 C        -1.888105         3.140295         1.475244
 C        -0.873951         3.496882         0.470496
 O        -1.315149         3.192401        -0.937784
 C        -2.073227         2.037936        -0.947955
 H        -0.857721        -0.776334         0.692119
 H        -3.272946        -0.113219        -1.310920
 H        -3.685626        -0.258966         0.366157
 H        -4.257274         2.523929        -0.046421
 H        -2.878318         1.211333         2.045637
 H        -2.716602         3.892625         1.542851
 H        -1.302610         3.225822         2.405376
 H        -0.599029         4.568153         0.464953
 H         0.081364         2.888997         0.596508
 H        -2.186100         1.766008        -2.020113
