19
Iteration:  3731
 O        -0.572149         0.212920         0.437401
 C        -1.832447         0.921352         0.134721
 C        -3.176534         0.265428        -0.003319
 C        -3.353593         1.849008        -0.132137
 C        -2.497419         1.911088         1.225065
 C        -1.810061         3.201161         1.507946
 C        -0.832297         3.425801         0.361627
 O        -1.268059         3.152301        -0.957454
 C        -2.041415         1.911539        -1.011128
 H        -0.016693         0.539277        -0.332692
 H        -3.420347        -0.244842        -0.979593
 H        -3.628284        -0.098468         0.910409
 H        -4.295030         2.382916        -0.355404
 H        -3.008415         1.357669         2.035244
 H        -2.545808         3.994813         1.574499
 H        -1.192019         3.153945         2.436870
 H        -0.704494         4.544412         0.383354
 H         0.118818         2.873940         0.403193
 H        -1.934222         1.554468        -2.039753
