19
Iteration:  4811
 O        -0.549134         0.216657         0.260869
 C        -1.783904         0.891880         0.113603
 C        -3.123052         0.216452        -0.355428
 C        -3.367028         1.791669        -0.217814
 C        -2.517687         1.785987         1.175356
 C        -1.943798         3.148696         1.571833
 C        -0.800876         3.573347         0.533069
 O        -1.229167         3.237644        -0.751686
 C        -2.005688         2.025991        -0.909472
 H        -0.345208         0.097260         1.267446
 H        -3.056766         0.004324        -1.439511
 H        -3.826858        -0.401842         0.220004
 H        -4.403083         2.170833        -0.258789
 H        -3.048436         1.247028         1.983524
 H        -2.812422         3.834955         1.596127
 H        -1.503149         2.986847         2.594130
 H        -0.535238         4.646481         0.623997
 H        -0.053448         2.852487         1.034408
 H        -2.045191         1.817690        -2.004139
