19
Iteration:  1582
 O        -0.578524         0.254454         0.480166
 C        -1.774534         0.816476         0.164512
 C        -3.267657         0.364826        -0.125728
 C        -3.402573         1.910515        -0.032099
 C        -2.450127         1.840100         1.138459
 C        -1.624154         3.111188         1.444669
 C        -0.874220         3.611006         0.263033
 O        -1.317094         3.041030        -1.010314
 C        -2.041159         1.920250        -0.908814
 H        -0.590499         0.098470         1.478098
 H        -3.583811        -0.149259        -1.032730
 H        -3.685488        -0.148847         0.760156
 H        -4.292909         2.395730        -0.220885
 H        -2.879303         1.357002         2.022689
 H        -2.303744         3.856280         1.863615
 H        -0.731124         3.023695         2.250904
 H        -0.838128         4.762072         0.136370
 H         0.178695         3.423859         0.463007
 H        -2.323550         1.485743        -1.871567
