19
Iteration:  3099charge 0 multiplicity 1
 O        -0.599924         0.154189         0.485722
 C        -1.731772         0.832881         0.177105
 C        -3.245673         0.388549        -0.078077
 C        -3.274748         1.884484        -0.017787
 C        -2.359507         1.828849         1.223316
 C        -1.766431         3.198293         1.489626
 C        -0.889209         3.564879         0.288335
 O        -1.407231         3.180327        -1.041319
 C        -2.007710         1.910331        -0.980709
 H        -0.401218        -0.608062        -0.003991
 H        -3.462765        -0.116584        -1.070762
 H        -3.603481        -0.220211         0.770089
 H        -4.197055         2.417416        -0.062247
 H        -2.964846         1.456346         2.008447
 H        -2.625427         3.908682         1.799111
 H        -1.056800         3.057439         2.293588
 H        -0.839279         4.685889         0.287032
 H         0.065031         2.968595         0.358765
 H        -2.092646         1.531634        -2.006487
