19
Iteration:   393charge 0 multiplicity 1
 O        -0.717727        -0.006631         0.347377
 C        -1.815979         0.903134         0.248922
 C        -3.130876         0.284301         0.051178
 C        -3.422290         1.830622         0.030682
 C        -2.411243         1.913956         1.163777
 C        -1.815700         3.425869         1.334869
 C        -0.737632         3.590881         0.255381
 O        -1.238169         3.035151        -1.029773
 C        -2.060043         1.940587        -0.886086
 H         0.045293         0.390809         0.882338
 H        -3.406265        -0.412835        -0.774493
 H        -3.522326        -0.154357         0.945952
 H        -4.298643         2.332997        -0.019508
 H        -2.716561         1.585289         2.132100
 H        -2.642539         4.062001         1.019666
 H        -1.485945         3.660527         2.347649
 H        -0.452865         4.727359        -0.011316
 H         0.038239         2.841508         0.651081
 H        -2.135947         1.555644        -1.942050
