19
Iteration:  1189charge 0 multiplicity 1
 O        -0.547213         0.207577         0.599706
 C        -1.818830         0.850519         0.173514
 C        -3.355118         0.371662        -0.057789
 C        -3.344090         1.910333        -0.146902
 C        -2.370032         1.896005         1.249415
 C        -1.598870         3.086381         1.490995
 C        -0.921050         3.569836         0.254760
 O        -1.317916         3.075791        -1.033754
 C        -2.078966         1.894999        -0.997403
 H         0.120403         0.163110        -0.121384
 H        -3.594260        -0.191494        -0.993430
 H        -3.892509        -0.105796         0.798110
 H        -4.306357         2.438449        -0.271532
 H        -2.851630         1.411853         2.143352
 H        -2.373684         3.904838         1.684255
 H        -0.924773         3.015070         2.311994
 H        -0.935958         4.713248         0.234081
 H         0.107189         3.373037         0.357278
 H        -2.256256         1.510728        -2.087298
