19
Iteration:  3539
 O        -0.655142         0.070832         0.277680
 C        -1.744278         0.880932         0.177706
 C        -3.070581         0.338692        -0.126677
 C        -3.347313         1.783321        -0.158765
 C        -2.486146         1.943696         1.219669
 C        -1.856573         3.264533         1.511219
 C        -0.820778         3.598626         0.352420
 O        -1.337729         3.168218        -0.897242
 C        -2.007476         1.907132        -0.905494
 H        -0.466183        -0.373305         1.155208
 H        -3.304106        -0.041348        -1.088970
 H        -3.464865        -0.328097         0.666140
 H        -4.403881         2.254774        -0.266597
 H        -2.892103         1.489132         2.154462
 H        -2.528193         4.134469         1.818154
 H        -1.220271         3.093869         2.351990
 H        -0.537558         4.660273         0.436383
 H         0.105203         2.959818         0.408967
 H        -2.001013         1.452081        -1.868754
