19
Iteration:  1349
 O        -0.516456         0.278439         0.379729
 C        -1.794854         0.947576         0.201022
 C        -3.232264         0.302224        -0.015068
 C        -3.353339         1.890347        -0.062463
 C        -2.457393         1.910927         1.211576
 C        -1.756943         3.231618         1.434848
 C        -0.743938         3.407436         0.256228
 O        -1.383456         3.059083        -0.960707
 C        -2.067504         1.906136        -0.976131
 H        -0.661516        -0.484485         1.024795
 H        -3.617341        -0.253735        -0.880608
 H        -3.650630         0.002555         0.940143
 H        -4.383392         2.364286        -0.201760
 H        -3.076176         1.523950         1.996831
 H        -2.431620         4.091239         1.449620
 H        -1.254805         3.317704         2.519145
 H        -0.207783         4.352503         0.115170
 H         0.145361         2.676481         0.396718
 H        -2.179714         1.585973        -1.966420
