19
Iteration:  2254
 O        -0.578390         0.128332         0.536556
 C        -1.754538         0.855791         0.180022
 C        -3.148255         0.313075        -0.112171
 C        -3.396278         1.836741        -0.062750
 C        -2.338937         1.911343         1.099986
 C        -1.656285         3.208860         1.397808
 C        -0.799454         3.537461         0.315342
 O        -1.484246         3.198821        -1.006401
 C        -2.144996         1.963260        -0.904809
 H        -0.708204        -0.616869         1.244377
 H        -3.340996        -0.110975        -1.157109
 H        -3.634273        -0.455070         0.615868
 H        -4.256628         2.597289        -0.306167
 H        -2.799009         1.516244         2.004474
 H        -2.409004         3.859083         1.671544
 H        -1.124266         3.018664         2.400952
 H        -0.494886         4.557115         0.191036
 H         0.152960         2.945012         0.490376
 H        -2.116153         1.669913        -1.898232
