19
Iteration:  3720
 O        -0.605026         0.168793         0.461273
 C        -1.737267         0.833890         0.218988
 C        -3.208602         0.378654        -0.139385
 C        -3.417709         1.852253        -0.039820
 C        -2.439966         1.863027         1.118833
 C        -1.810052         3.224761         1.490351
 C        -0.822501         3.527695         0.326277
 O        -1.325253         3.132431        -0.980108
 C        -1.986895         1.906869        -0.907258
 H         0.005112         0.312315        -0.243597
 H        -3.324811        -0.288130        -1.061685
 H        -3.613564        -0.262385         0.651313
 H        -4.346867         2.328297        -0.365903
 H        -2.715387         1.344246         2.066479
 H        -2.616247         3.929556         1.567598
 H        -1.328967         3.278733         2.498915
 H        -0.504978         4.614500         0.341748
 H         0.123485         3.039270         0.629210
 H        -2.313675         1.564835        -1.891057
