19
Iteration:  3696
 O        -0.622995         0.022115         0.538983
 C        -1.793227         0.792116         0.232078
 C        -3.167888         0.251963        -0.255420
 C        -3.314835         1.839383         0.014512
 C        -2.425517         1.841280         1.266261
 C        -1.765923         3.291017         1.420441
 C        -0.835722         3.607470         0.239907
 O        -1.319602         3.195245        -0.932389
 C        -2.070097         2.032631        -0.951360
 H        -0.239477        -0.174576        -0.389937
 H        -3.303168        -0.134812        -1.307556
 H        -3.699912        -0.467946         0.316862
 H        -4.216446         2.347955        -0.175958
 H        -2.868984         1.424126         2.201970
 H        -2.630117         4.058136         1.398729
 H        -1.251332         3.572581         2.379329
 H        -0.871562         4.696487         0.490689
 H         0.276820         3.432705         0.414316
 H        -2.229408         1.619032        -1.916103
