19
Iteration:  2285
 O        -0.548941         0.289859         0.406403
 C        -1.818820         0.931139         0.282889
 C        -3.166190         0.230719        -0.067424
 C        -3.440203         1.798214        -0.142181
 C        -2.520281         1.913436         1.236649
 C        -1.624983         3.170632         1.495167
 C        -0.719916         3.389895         0.302378
 O        -1.438393         3.224366        -1.070304
 C        -2.085812         1.966436        -0.917819
 H        -0.548405        -0.552330         0.780386
 H        -3.150016        -0.179226        -1.012354
 H        -3.571592        -0.227730         0.798779
 H        -4.310985         2.504461        -0.435560
 H        -3.080202         1.486458         2.042874
 H        -2.264610         3.992311         1.542298
 H        -1.047560         3.063616         2.470622
 H        -0.544418         4.428429         0.266230
 H         0.149279         2.783978         0.393434
 H        -1.919257         1.404712        -1.800848
