19
Iteration:   639
 O        -0.712335        -0.044579         0.532282
 C        -1.810915         0.881707         0.209163
 C        -3.220526         0.310546         0.152896
 C        -3.332332         1.870173        -0.149728
 C        -2.352393         1.938173         1.128380
 C        -1.725597         3.277462         1.451621
 C        -0.869875         3.675841         0.176687
 O        -1.278418         3.103263        -1.046286
 C        -2.073669         1.880246        -1.003464
 H         0.102440         0.421308         0.713687
 H        -3.508038        -0.174329        -0.778555
 H        -3.554609        -0.164814         1.097089
 H        -4.230420         2.552976        -0.065614
 H        -2.751123         1.451290         2.006467
 H        -2.436916         3.986491         1.730226
 H        -0.953244         3.227281         2.207936
 H        -0.801265         4.694337        -0.002226
 H         0.180491         3.212180         0.374248
 H        -2.172361         1.561188        -1.946346
