19
Iteration:   361
 O        -0.579905         0.062038         0.440382
 C        -1.757009         0.806738         0.288797
 C        -3.224632         0.320267        -0.041796
 C        -3.338767         1.898244        -0.008192
 C        -2.464362         1.965182         1.198268
 C        -1.708967         3.364921         1.386326
 C        -0.814257         3.512151         0.182041
 O        -1.466765         3.124694        -1.048532
 C        -1.942621         1.871796        -0.897139
 H        -0.717825        -0.538616         1.196814
 H        -3.506432        -0.063883        -1.073092
 H        -3.700368        -0.105560         0.818461
 H        -4.158221         2.497620        -0.145016
 H        -2.885138         1.682044         2.175181
 H        -2.484473         4.178754         1.360633
 H        -1.150189         3.556089         2.351276
 H        -0.228883         4.491803        -0.088276
 H         0.058904         2.832664         0.371514
 H        -2.069820         1.334678        -1.837162
