19
Iteration:  2014charge 0 multiplicity 1
 O        -0.629561         0.049409         0.251725
 C        -1.781957         0.796829         0.188978
 C        -3.166132         0.325375         0.013266
 C        -3.301806         1.845479        -0.046743
 C        -2.435454         1.978242         1.154539
 C        -1.754556         3.323293         1.466321
 C        -0.921042         3.746079         0.265590
 O        -1.273725         3.005193        -0.904337
 C        -2.026490         1.851734        -0.919685
 H        -0.689784        -0.618959         1.034294
 H        -3.460560        -0.216186        -0.864094
 H        -3.534996        -0.010795         0.962653
 H        -4.277184         2.379352        -0.091102
 H        -2.769440         1.661995         2.099728
 H        -2.605877         3.969648         1.712627
 H        -1.103303         3.290221         2.347286
 H        -1.121149         4.736906         0.017610
 H         0.158991         3.648790         0.467158
 H        -2.084736         1.599892        -2.016424
