19
Iteration:   447
 O        -0.569327         0.329790         0.466416
 C        -1.855716         0.888675         0.311324
 C        -3.281241         0.319096        -0.053355
 C        -3.366091         1.845956        -0.075477
 C        -2.471671         1.963340         1.264741
 C        -1.684977         3.276359         1.353998
 C        -0.762035         3.457283         0.244290
 O        -1.360927         3.023371        -1.009227
 C        -2.021081         1.794587        -0.879402
 H        -0.477929        -0.389695        -0.236577
 H        -3.359359        -0.069137        -1.084077
 H        -3.895846        -0.195402         0.662040
 H        -4.172335         2.445809        -0.360155
 H        -2.868349         1.514412         2.186329
 H        -2.358262         4.082273         1.578918
 H        -1.121359         3.113102         2.258514
 H        -0.487798         4.608188         0.031159
 H         0.314733         3.057425         0.305321
 H        -1.973607         1.368568        -1.937221
