19
Iteration:  3711charge 0 multiplicity 1
 O        -0.590738         0.101841         0.492816
 C        -1.748197         0.881974         0.191720
 C        -3.218961         0.320419        -0.207497
 C        -3.372577         1.822217        -0.043249
 C        -2.417901         1.846723         1.207998
 C        -1.819725         3.231937         1.417890
 C        -0.792772         3.631149         0.353628
 O        -1.343390         3.122121        -0.968581
 C        -2.059704         1.930923        -0.856877
 H         0.050295         0.089526        -0.192616
 H        -3.277832         0.050315        -1.301032
 H        -3.723873        -0.295116         0.585889
 H        -4.269461         2.525303        -0.046931
 H        -2.847280         1.421601         2.122857
 H        -2.579815         3.934374         1.443893
 H        -1.286282         3.187386         2.374549
 H        -0.540909         4.619101        -0.028597
 H         0.051596         3.026523         0.560433
 H        -2.069680         1.596901        -1.956971
