19
Iteration:  2590
 O        -0.605139         0.108540         0.340864
 C        -1.768291         0.940219         0.286707
 C        -3.203524         0.300335        -0.115009
 C        -3.359738         1.827464        -0.144819
 C        -2.524396         1.832396         1.186686
 C        -1.669842         3.121457         1.456838
 C        -0.809866         3.683883         0.280256
 O        -1.347929         3.141347        -1.008801
 C        -2.037340         1.958341        -0.834070
 H        -0.358403         0.199740         1.340523
 H        -3.253905        -0.331750        -1.051026
 H        -3.749684        -0.141108         0.743908
 H        -4.421461         2.367680        -0.191447
 H        -3.065806         1.436747         2.172736
 H        -2.255591         3.899962         2.027045
 H        -0.968336         2.942097         2.256348
 H        -0.891053         4.737310         0.218874
 H         0.212490         3.195957         0.358037
 H        -2.118144         1.452598        -1.894370
