19
Iteration:  3028
 O        -0.502583         0.268639         0.301719
 C        -1.792421         0.875547         0.250463
 C        -3.148954         0.331160        -0.049461
 C        -3.344824         1.877778        -0.040855
 C        -2.464562         1.822375         1.250873
 C        -1.839961         3.180532         1.366188
 C        -0.761811         3.373634         0.308928
 O        -1.350631         3.171136        -0.978801
 C        -2.122493         1.989417        -0.924847
 H        -0.284802        -0.021431         1.153400
 H        -3.441729        -0.094495        -1.031137
 H        -3.841407        -0.072220         0.745723
 H        -4.292555         2.426444        -0.038557
 H        -2.879449         1.420609         2.247928
 H        -2.516696         3.941474         1.189601
 H        -1.394390         3.269575         2.386390
 H        -0.389344         4.379107         0.242126
 H        -0.048377         2.608401         0.595614
 H        -2.150383         1.433526        -1.897961
