19
Iteration:  4622charge 0 multiplicity 1
 O        -0.593863         0.172183         0.243464
 C        -1.753491         0.882883         0.155854
 C        -3.105701         0.236768        -0.252749
 C        -3.287692         1.792419        -0.177022
 C        -2.568351         1.875890         1.136428
 C        -1.908346         3.215074         1.558070
 C        -0.817667         3.484506         0.588163
 O        -1.330551         3.253414        -0.810282
 C        -2.008575         1.952111        -0.929262
 H         0.161923         0.629946         0.761685
 H        -3.205149        -0.373797        -1.174054
 H        -3.686514        -0.088637         0.654019
 H        -4.212924         2.351363        -0.464198
 H        -3.004698         1.278465         1.931169
 H        -2.612659         4.041206         1.458165
 H        -1.602942         3.040848         2.593935
 H        -0.282216         4.396864         0.351840
 H         0.034525         2.737712         0.685959
 H        -1.998627         1.630663        -1.980831
