19
Iteration:  3229charge 0 multiplicity 1
 O        -0.615648         0.059164         0.339448
 C        -1.753990         0.934829         0.153776
 C        -3.119760         0.316640        -0.134682
 C        -3.399857         1.799377         0.055456
 C        -2.478829         1.907833         1.238883
 C        -1.774993         3.278603         1.400243
 C        -0.789576         3.507874         0.279773
 O        -1.331597         3.138106        -0.989743
 C        -2.139252         1.948034        -0.865735
 H        -0.123350         0.482133         1.084734
 H        -3.191331        -0.068045        -1.238999
 H        -3.381610        -0.457500         0.647730
 H        -4.210637         2.480360         0.114845
 H        -2.695999         1.375606         2.240135
 H        -2.570002         4.039958         1.455722
 H        -1.193741         3.372690         2.337175
 H        -0.340733         4.529615         0.296329
 H         0.069863         2.911605         0.558308
 H        -2.332687         1.581331        -1.927946
