19
Iteration:   789
 O        -0.722621        -0.010192         0.393583
 C        -1.803350         0.831966         0.215481
 C        -3.234782         0.298448         0.007549
 C        -3.363735         1.877353         0.002626
 C        -2.320563         1.882485         1.257759
 C        -1.851456         3.370043         1.310059
 C        -0.839287         3.651470         0.242724
 O        -1.231971         3.080639        -0.976768
 C        -1.987936         1.909436        -0.887286
 H        -0.070147        -0.059617        -0.271756
 H        -3.503679        -0.352955        -0.812331
 H        -3.515358        -0.059456         1.017073
 H        -4.231923         2.601206        -0.006853
 H        -2.466381         1.433181         2.243203
 H        -2.702979         4.151576         1.169352
 H        -1.465931         3.543734         2.371749
 H        -0.675621         4.733706         0.071319
 H         0.131241         3.201575         0.459165
 H        -2.009967         1.542520        -1.990746
