19
Iteration:  1554charge 0 multiplicity 1
 O        -0.637480         0.203857         0.430505
 C        -1.787972         0.873628         0.205000
 C        -3.190102         0.188729        -0.032107
 C        -3.430942         1.809292        -0.103166
 C        -2.521586         1.942839         1.176124
 C        -1.619319         3.180818         1.526962
 C        -0.740153         3.509261         0.270405
 O        -1.338726         3.220473        -1.038064
 C        -2.078710         1.955796        -0.983207
 H        -0.677814        -0.045521         1.427171
 H        -3.357658        -0.428326        -0.944218
 H        -3.459744        -0.303617         0.923170
 H        -4.438367         2.398572        -0.271580
 H        -3.102463         1.440964         2.003864
 H        -2.291456         4.081367         1.765238
 H        -0.872955         3.136077         2.282552
 H        -0.531516         4.537258         0.219246
 H         0.289189         2.995247         0.365044
 H        -2.110042         1.605902        -2.074070
