19
Iteration:  3431
 O        -0.541040         0.143232         0.374636
 C        -1.836602         0.907655         0.162254
 C        -3.231907         0.309487        -0.108015
 C        -3.363006         1.788387        -0.143653
 C        -2.434930         1.847574         1.225114
 C        -1.755565         3.190566         1.519262
 C        -0.799447         3.566467         0.336668
 O        -1.338488         3.155417        -0.946180
 C        -2.054636         1.944084        -0.962655
 H        -0.374677         0.518878         1.313997
 H        -3.348877        -0.214535        -1.111256
 H        -3.762543        -0.175924         0.797873
 H        -4.386128         2.301381        -0.368084
 H        -2.973665         1.332820         2.066117
 H        -2.436314         3.994960         1.738552
 H        -1.093837         3.171296         2.380522
 H        -0.542713         4.615723         0.328715
 H         0.098338         2.983808         0.342655
 H        -1.988317         1.766094        -1.994509
