19
Iteration:    12
 O        -0.697979         0.004416         0.480463
 C        -1.860762         0.782584         0.264672
 C        -3.287821         0.380999         0.054200
 C        -3.302284         2.007242        -0.029391
 C        -2.339796         1.960090         1.234495
 C        -1.434246         3.230527         1.331252
 C        -1.341423         4.035143         0.075578
 O        -1.019444         2.742698        -0.977659
 C        -2.046772         1.793577        -0.934891
 H        -0.511682        -0.178018         1.474397
 H        -3.473808        -0.067073        -0.928455
 H        -3.813792        -0.122580         0.859904
 H        -4.044866         2.775082        -0.330891
 H        -2.753951         1.593036         2.190294
 H        -1.834797         3.877397         2.128443
 H        -0.400171         3.003921         1.602967
 H        -2.211967         4.517276        -0.341242
 H        -0.435964         4.662580        -0.001398
 H        -2.268251         1.409678        -1.945668
