19
Iteration:   570
 O        -0.633988         0.225144         0.422571
 C        -1.820177         0.865047         0.216753
 C        -3.318074         0.341594         0.119006
 C        -3.387911         1.943880        -0.014199
 C        -2.393978         1.924071         1.158575
 C        -1.784961         3.232670         1.458315
 C        -0.862924         3.638025         0.169142
 O        -1.079312         2.876767        -0.984566
 C        -2.102597         1.847735        -0.940783
 H        -0.139903         0.190381        -0.454802
 H        -3.619511        -0.258396        -0.747352
 H        -3.480241        -0.164237         1.085580
 H        -4.319576         2.525377        -0.184193
 H        -2.958377         1.548566         2.014650
 H        -2.630237         3.869186         1.523568
 H        -1.221327         3.270046         2.394823
 H        -1.104085         4.675948        -0.296682
 H         0.274733         3.483497         0.318604
 H        -1.930795         1.431452        -1.953640
