19
Iteration:  2374charge 0 multiplicity 1
 O        -0.606223         0.012124         0.280310
 C        -1.729700         0.817229         0.248779
 C        -3.154503         0.310306        -0.058510
 C        -3.327757         1.789679        -0.059293
 C        -2.415261         1.915381         1.190467
 C        -1.834359         3.376436         1.507504
 C        -0.780105         3.624904         0.320309
 O        -1.371328         3.133801        -0.965589
 C        -2.099281         1.930942        -0.963211
 H        -0.448229        -0.176717         1.170251
 H        -3.076273         0.051006        -1.091673
 H        -3.826136        -0.135950         0.760988
 H        -4.334354         2.371104        -0.265775
 H        -2.771990         1.385333         2.062670
 H        -2.623882         4.118680         1.680099
 H        -1.260605         3.322726         2.538971
 H        -0.547651         4.667691         0.089257
 H         0.126543         3.030777         0.469804
 H        -2.100383         1.573894        -1.986333
