19
Iteration:   200
 O        -0.687464         0.017487         0.438035
 C        -1.765828         0.896198         0.266553
 C        -3.212075         0.329697         0.063426
 C        -3.284876         1.903603         0.010843
 C        -2.467295         1.988901         1.250455
 C        -1.784097         3.367463         1.431741
 C        -0.871713         3.510442         0.160696
 O        -1.260011         3.005228        -1.165563
 C        -2.041234         1.881784        -0.874954
 H         0.122625         0.632678         0.362578
 H        -3.355207        -0.092628        -0.985479
 H        -3.586277        -0.215353         0.881760
 H        -4.267336         2.574251        -0.201772
 H        -2.802525         1.410511         2.176973
 H        -2.583357         4.086089         1.477729
 H        -1.226229         3.475747         2.349605
 H        -0.487243         4.560059        -0.000744
 H         0.128293         2.956426         0.402949
 H        -2.256517         1.427493        -1.826983
