19
Iteration:  1826charge 0 multiplicity 1
 O        -0.693113        -0.134594         0.244262
 C        -1.692223         0.854762         0.280755
 C        -3.182540         0.367655         0.002304
 C        -3.311539         1.833820        -0.048256
 C        -2.359839         2.001033         1.239180
 C        -1.807043         3.383695         1.398874
 C        -0.866530         3.687705         0.294761
 O        -1.391887         3.093048        -0.962989
 C        -1.983383         1.863230        -0.880997
 H        -0.049747         0.027543         0.940486
 H        -3.474399        -0.102112        -0.953389
 H        -3.599710        -0.128812         0.858514
 H        -4.260916         2.336193        -0.558728
 H        -2.757141         1.506974         2.114646
 H        -2.734855         3.878831         1.545224
 H        -1.251562         3.463060         2.360883
 H        -0.785703         4.753509        -0.030364
 H         0.139146         3.212552         0.477944
 H        -2.025345         1.531401        -1.994498
