19
Iteration:  4842charge 0 multiplicity 1
 O        -0.521408         0.050494         0.275730
 C        -1.658493         0.895074         0.124892
 C        -3.149998         0.324707        -0.233039
 C        -3.310312         1.852520        -0.288086
 C        -2.628760         1.829105         1.153861
 C        -1.913958         3.095367         1.634597
 C        -0.887362         3.512656         0.547374
 O        -1.365870         3.320892        -0.749984
 C        -1.884829         2.014687        -0.984620
 H         0.203322         0.482721         0.670402
 H        -3.166865        -0.149536        -1.262039
 H        -3.816018        -0.332939         0.379072
 H        -4.283644         2.244383        -0.643807
 H        -3.264111         1.446928         1.941781
 H        -2.710151         3.849634         1.749854
 H        -1.624427         2.811171         2.673054
 H        -0.640571         4.595845         0.542183
 H        -0.009652         2.999169         0.758892
 H        -1.878634         1.551264        -1.977412
