19
Iteration:  2673charge 0 multiplicity 1
 O        -0.515903         0.207883         0.283799
 C        -1.794757         0.957261         0.242296
 C        -3.057780         0.304916        -0.077012
 C        -3.482741         1.826749        -0.108101
 C        -2.547876         1.977695         1.175909
 C        -1.804000         3.308988         1.519937
 C        -0.741182         3.414089         0.294390
 O        -1.349048         3.109735        -0.875819
 C        -2.084804         1.898693        -0.898054
 H        -0.839608        -0.688020         0.437669
 H        -3.132289        -0.134825        -1.107135
 H        -3.419908        -0.234545         0.780338
 H        -4.459731         2.062618        -0.414032
 H        -2.807023         1.442494         2.065178
 H        -2.552593         4.065540         1.546136
 H        -1.173920         3.185386         2.446110
 H        -0.155974         4.373974         0.076849
 H         0.126545         2.765393         0.459381
 H        -2.184157         1.556592        -1.905481
