19
Iteration:  3886charge 0 multiplicity 1
 O        -0.690922         0.121543         0.488333
 C        -1.753902         0.883460         0.179025
 C        -3.215619         0.327284        -0.140935
 C        -3.345146         1.842329        -0.058899
 C        -2.392656         1.848708         1.155323
 C        -1.739768         3.129476         1.498833
 C        -0.919133         3.663739         0.268071
 O        -1.213929         3.059303        -0.991377
 C        -2.069525         1.962955        -0.933451
 H         0.096009         0.474531         0.829340
 H        -3.489504        -0.202380        -1.047339
 H        -3.776046        -0.136674         0.761902
 H        -4.278485         2.480657        -0.049132
 H        -2.704917         1.347736         2.049991
 H        -2.470455         3.855137         1.877331
 H        -1.068033         2.944998         2.406617
 H        -1.272102         4.680525         0.180218
 H         0.149310         3.767553         0.138792
 H        -2.073293         1.716280        -2.013516
