19
Iteration:  3921
 O        -0.616223         0.183950         0.395203
 C        -1.803403         0.882617         0.297006
 C        -3.253805         0.231907        -0.132548
 C        -3.386528         1.826543        -0.090178
 C        -2.504029         1.924857         1.179497
 C        -1.751989         3.162515         1.482790
 C        -0.851861         3.618340         0.281818
 O        -1.224296         3.060207        -0.974104
 C        -1.982940         1.952428        -0.881949
 H         0.093139         0.652157        -0.018775
 H        -3.376296        -0.147229        -1.172503
 H        -3.986324        -0.193288         0.630281
 H        -4.346857         2.323507        -0.216440
 H        -2.999649         1.532899         2.066992
 H        -2.226071         4.006017         1.935032
 H        -0.961810         2.794931         2.186305
 H        -1.050184         4.697898         0.230924
 H         0.257247         3.488990         0.598309
 H        -2.134479         1.467536        -1.909296
