19
Iteration:  2766charge 0 multiplicity 1
 O        -0.637715         0.123293         0.435271
 C        -1.734869         0.939181         0.307368
 C        -3.134155         0.245898        -0.111226
 C        -3.355192         1.814468        -0.162819
 C        -2.433487         1.914018         1.215892
 C        -1.693529         3.168162         1.442594
 C        -0.792123         3.589258         0.277546
 O        -1.454923         3.244016        -0.930193
 C        -2.051065         1.899314        -0.940855
 H        -1.038467        -0.820590         0.387953
 H        -3.242900        -0.223319        -1.083832
 H        -3.554923        -0.281556         0.819464
 H        -4.300232         2.275034        -0.439628
 H        -3.034115         1.476007         1.990022
 H        -2.335608         4.084803         1.666749
 H        -0.992882         2.953802         2.237249
 H        -0.615613         4.585038         0.381698
 H         0.196838         3.189542         0.355174
 H        -1.864511         1.774283        -2.030873
