19
Iteration:  2912charge 0 multiplicity 1
 O        -0.699348         0.013499         0.374495
 C        -1.732885         0.882870         0.167518
 C        -3.120873         0.285494        -0.106120
 C        -3.434438         1.742362        -0.018244
 C        -2.412936         1.887013         1.208840
 C        -1.726293         3.302281         1.479591
 C        -0.793524         3.600714         0.244924
 O        -1.328154         3.174724        -0.958376
 C        -2.082038         1.983385        -0.921360
 H        -0.209171         0.508223         1.037782
 H        -3.148297        -0.280016        -1.064657
 H        -3.506658        -0.365147         0.637203
 H        -4.405529         2.338224        -0.066376
 H        -2.654864         1.475854         2.254512
 H        -2.592520         4.082575         1.551176
 H        -1.275520         3.169733         2.479535
 H        -0.668965         4.722848         0.177372
 H         0.150731         3.059499         0.380103
 H        -2.211834         1.787667        -2.008142
