19
Iteration:  1149charge 0 multiplicity 1
 O        -0.690158         0.137216         0.294884
 C        -1.793362         0.912381         0.308608
 C        -3.147141         0.253005        -0.017530
 C        -3.409860         1.826826        -0.030345
 C        -2.470410         1.924628         1.249078
 C        -1.744199         3.313090         1.419936
 C        -0.781648         3.513445         0.283463
 O        -1.199773         3.030657        -0.958820
 C        -2.136249         1.940490        -0.897373
 H        -0.138651         0.540508        -0.406658
 H        -3.295086        -0.275012        -0.970885
 H        -3.686698        -0.300975         0.790095
 H        -4.305011         2.326188        -0.473002
 H        -3.092387         1.720116         2.119936
 H        -2.605140         3.952746         1.215541
 H        -1.051887         3.516715         2.364608
 H        -0.668141         4.607826         0.213578
 H         0.350021         3.238781         0.520138
 H        -2.069876         1.498604        -1.830486
