19
Iteration:  1892charge 0 multiplicity 1
 O        -0.582817         0.392042         0.441997
 C        -1.808667         0.929940         0.191875
 C        -3.278014         0.217440        -0.090415
 C        -3.352948         1.827982        -0.058376
 C        -2.454295         1.927618         1.208661
 C        -1.634075         3.178044         1.479929
 C        -0.743260         3.452559         0.264138
 O        -1.393046         3.125723        -1.007815
 C        -2.100784         1.836408        -0.945128
 H        -0.456379        -0.132422         1.293804
 H        -3.541489        -0.233507        -1.087352
 H        -3.583272        -0.431440         0.723155
 H        -4.331340         2.439182        -0.343009
 H        -2.806803         1.599896         2.182039
 H        -2.234576         4.049169         1.648857
 H        -0.965195         2.995207         2.367392
 H        -0.442070         4.508546         0.060992
 H         0.137917         2.740019         0.331309
 H        -2.296247         1.477065        -2.032187
