19
Iteration:  2067charge 0 multiplicity 1
 O        -0.517227         0.205015         0.460842
 C        -1.798715         0.908820         0.188941
 C        -3.265161         0.300554        -0.123266
 C        -3.384941         1.866542        -0.090129
 C        -2.498277         1.850735         1.237910
 C        -1.596396         3.191076         1.541411
 C        -0.856371         3.632858         0.196962
 O        -1.360749         3.041082        -1.032798
 C        -2.091449         1.910604        -0.910435
 H        -0.805283        -0.267216         1.328914
 H        -3.261414        -0.138323        -1.140431
 H        -3.635903        -0.403495         0.641335
 H        -4.250066         2.553103        -0.290951
 H        -2.812982         1.442810         2.179562
 H        -2.245137         3.928894         1.933095
 H        -0.772230         3.136929         2.324881
 H        -0.862222         4.690349         0.027957
 H         0.168257         3.381441         0.175709
 H        -2.175055         1.529533        -1.826945
