19
Iteration:  4120charge 0 multiplicity 1
 O        -0.593527         0.062837         0.322369
 C        -1.775397         0.807848         0.125676
 C        -3.140544         0.254418        -0.078555
 C        -3.379743         1.826051        -0.084143
 C        -2.473698         1.919177         1.124491
 C        -1.788150         3.286881         1.432661
 C        -0.809602         3.579178         0.380787
 O        -1.362169         3.214011        -0.903506
 C        -1.976267         1.919758        -0.877923
 H        -0.166491         0.425300         1.170557
 H        -3.588911        -0.220727        -1.031121
 H        -3.719824        -0.214237         0.719669
 H        -4.298888         2.421593        -0.189489
 H        -2.853802         1.598917         2.072661
 H        -2.679511         3.955712         1.491010
 H        -1.453419         3.220253         2.516633
 H        -0.321426         4.595857         0.363702
 H        -0.060966         2.862845         0.571502
 H        -2.037611         1.529233        -1.967015
