19
Iteration:  2371
 O        -0.589742         0.013086         0.273970
 C        -1.732545         0.829768         0.217153
 C        -3.137528         0.333770        -0.055531
 C        -3.347539         1.792217        -0.034650
 C        -2.442783         1.921046         1.211321
 C        -1.831524         3.352800         1.519789
 C        -0.768741         3.627085         0.318867
 O        -1.358463         3.145464        -0.972759
 C        -2.097511         1.902906        -0.960062
 H        -0.423716        -0.168910         1.252220
 H        -3.180260         0.031880        -1.113339
 H        -3.836463        -0.204263         0.610476
 H        -4.306933         2.363447        -0.293653
 H        -2.807094         1.428232         2.123850
 H        -2.712712         4.117925         1.606920
 H        -1.291242         3.413513         2.495335
 H        -0.497496         4.616822         0.036404
 H         0.184944         3.042555         0.553233
 H        -2.252812         1.429935        -1.996243
