19
Iteration:   502charge 0 multiplicity 1
 O        -0.667793         0.125173         0.810532
 C        -1.785104         0.855764         0.236761
 C        -3.122348         0.278300        -0.078750
 C        -3.354769         1.835835        -0.137514
 C        -2.414731         1.919182         1.197973
 C        -1.565260         3.236025         1.430377
 C        -0.687700         3.415152         0.079980
 O        -1.588588         3.333316        -1.052380
 C        -2.074418         1.958869        -0.980722
 H        -0.525254        -0.721705         0.306688
 H        -3.346666        -0.209871        -1.050469
 H        -3.528672        -0.248052         0.756314
 H        -4.223820         2.390476        -0.256762
 H        -3.070986         1.521867         1.988342
 H        -2.313546         4.012342         1.583913
 H        -1.067037         3.075341         2.373076
 H        -0.279436         4.569827        -0.002178
 H         0.000338         2.472604        -0.008665
 H        -2.093280         1.550965        -2.082213
