19
Iteration:  3494charge 0 multiplicity 1
 O        -0.631049         0.118719         0.558462
 C        -1.765176         0.851018         0.174623
 C        -3.257980         0.309055        -0.190636
 C        -3.301131         1.847004        -0.027785
 C        -2.432537         1.760778         1.127260
 C        -1.709534         3.148029         1.502754
 C        -0.881786         3.764531         0.305742
 O        -1.335367         3.176013        -0.933112
 C        -1.956145         1.941193        -0.989543
 H        -0.544337        -0.571150        -0.199004
 H        -3.400185        -0.092849        -1.169917
 H        -3.762828        -0.277820         0.617364
 H        -4.153317         2.633286        -0.174625
 H        -2.883389         1.289144         2.039997
 H        -2.575608         3.842670         1.811517
 H        -1.126591         2.834748         2.335747
 H        -1.109293         4.858933         0.096000
 H         0.229908         3.577486         0.482054
 H        -2.151107         1.459228        -1.961848
