19
Iteration:  3548
 O        -0.610716         0.085227         0.217464
 C        -1.775473         0.909457         0.229515
 C        -3.123153         0.272845        -0.108299
 C        -3.387785         1.810795        -0.135295
 C        -2.498527         1.931173         1.160861
 C        -1.753398         3.277420         1.451526
 C        -0.841965         3.506198         0.384072
 O        -1.357504         3.186276        -0.854804
 C        -1.974684         1.949776        -0.853112
 H        -0.449686        -0.000795         1.203913
 H        -3.002933        -0.276339        -1.005044
 H        -3.662576        -0.155929         0.733848
 H        -4.391908         2.157321        -0.576701
 H        -3.022739         1.516406         2.033642
 H        -2.639360         4.026399         1.478099
 H        -1.228516         3.198236         2.419174
 H        -0.532814         4.580985         0.212281
 H         0.040209         2.906363         0.742335
 H        -1.953723         1.540104        -1.897677
