19
Iteration:  2372charge 0 multiplicity 1
 O        -0.595310         0.012335         0.276328
 C        -1.731047         0.824402         0.228744
 C        -3.142460         0.326602        -0.056974
 C        -3.339392         1.788853        -0.042509
 C        -2.434064         1.918221         1.204012
 C        -1.833368         3.361262         1.515537
 C        -0.771119         3.628294         0.319279
 O        -1.362937         3.141470        -0.970354
 C        -2.099328         1.912429        -0.962420
 H        -0.435289        -0.168154         1.216143
 H        -3.136474         0.054054        -1.099692
 H        -3.843074        -0.178680         0.669100
 H        -4.333536         2.376914        -0.291298
 H        -2.790448         1.413889         2.097401
 H        -2.691999         4.126064         1.637575
 H        -1.274285         3.383647         2.523877
 H        -0.516020         4.623338         0.052876
 H         0.171008         3.035363         0.524710
 H        -2.202350         1.474366        -1.997450
