19
Iteration:    32charge 0 multiplicity 1
 O        -0.765407        -0.074107         0.441375
 C        -1.841711         0.770071         0.225665
 C        -3.386533         0.426984         0.034820
 C        -3.285209         1.932730         0.030223
 C        -2.256826         1.997183         1.180328
 C        -1.459167         3.295965         1.349244
 C        -1.400139         3.898322        -0.074321
 O        -0.948867         2.830831        -0.820322
 C        -1.963606         1.819155        -0.887442
 H        -0.066709         0.393562         0.985584
 H        -3.668005        -0.044219        -0.919896
 H        -3.998256         0.042056         0.917100
 H        -4.109159         2.512015         0.014378
 H        -2.725620         1.636496         2.184534
 H        -1.885224         3.962716         2.122966
 H        -0.389136         3.065426         1.642985
 H        -2.479665         4.127793        -0.420740
 H        -0.671609         4.696467        -0.192193
 H        -2.043137         1.519271        -1.866124
