19
Iteration:   378charge 0 multiplicity 1
 O        -0.622682        -0.030886         0.364033
 C        -1.742883         0.842171         0.257650
 C        -3.218411         0.316963        -0.000491
 C        -3.326185         1.824895        -0.018819
 C        -2.406971         2.037863         1.303982
 C        -1.815767         3.399927         1.274022
 C        -0.717826         3.535948         0.244417
 O        -1.339457         3.120426        -1.011684
 C        -2.122041         1.870772        -0.881657
 H        -0.335658        -0.035481         1.323401
 H        -3.227899        -0.142566        -0.954297
 H        -3.766142        -0.353512         0.735923
 H        -4.304870         2.434550        -0.286428
 H        -2.871177         1.593944         2.203452
 H        -2.600384         4.137111         1.105524
 H        -1.411776         3.602025         2.241707
 H        -0.517680         4.554105         0.132438
 H         0.267877         3.065264         0.356799
 H        -2.231248         1.489511        -1.944843
