19
Iteration:  4066charge 0 multiplicity 1
 O        -0.585792         0.182956         0.385950
 C        -1.752854         0.941414         0.192567
 C        -3.231924         0.244633        -0.172540
 C        -3.380176         1.756143        -0.115546
 C        -2.526299         1.881183         1.216006
 C        -1.703708         3.238974         1.507358
 C        -0.807688         3.541732         0.297892
 O        -1.346475         3.189469        -0.919044
 C        -1.990037         1.912394        -0.960272
 H        -0.509829        -0.144172         1.301157
 H        -3.254346        -0.172813        -1.247521
 H        -3.805613        -0.281966         0.604711
 H        -4.227297         2.447551        -0.235038
 H        -2.982989         1.454775         2.128442
 H        -2.317427         3.930055         2.049164
 H        -1.075399         2.841526         2.294297
 H        -0.765755         4.663765         0.258659
 H         0.166920         3.265439         0.530223
 H        -2.193736         1.569084        -2.043071
