19
Iteration:  4215
 O        -0.573046         0.203188         0.456864
 C        -1.754615         0.911707         0.221592
 C        -3.147448         0.234653        -0.162258
 C        -3.309158         1.793839        -0.028931
 C        -2.593144         1.901925         1.198436
 C        -1.777902         3.187724         1.504134
 C        -0.786054         3.513479         0.282101
 O        -1.330334         3.223764        -1.003391
 C        -2.027509         1.998712        -0.941811
 H        -0.746455        -0.668924         0.229366
 H        -3.334408        -0.247650        -1.146967
 H        -3.629779        -0.312177         0.645706
 H        -4.236802         2.270739        -0.350776
 H        -3.174851         1.330133         1.987237
 H        -2.537253         3.875521         1.852963
 H        -1.118606         3.038385         2.392347
 H        -0.534537         4.566834         0.382719
 H         0.014559         2.815263         0.562507
 H        -2.088386         1.734948        -1.985362
