19
Iteration:  2731charge 0 multiplicity 1
 O        -0.518289         0.177358         0.430047
 C        -1.788063         0.892633         0.206512
 C        -3.173796         0.332044        -0.146567
 C        -3.308423         1.872980        -0.024694
 C        -2.427158         1.864111         1.227494
 C        -1.802793         3.208882         1.420573
 C        -0.801620         3.528442         0.309700
 O        -1.323319         3.155210        -0.956985
 C        -2.136596         1.919437        -0.964681
 H        -0.765696        -0.805358         0.422255
 H        -3.507896        -0.153007        -1.110935
 H        -3.584081        -0.291210         0.711047
 H        -4.260412         2.518797        -0.112651
 H        -2.909554         1.391664         2.044903
 H        -2.575657         3.964219         1.611304
 H        -1.228078         3.211365         2.403471
 H        -0.770661         4.591142         0.285641
 H         0.136417         3.042453         0.541624
 H        -2.393605         1.519713        -2.002558
