19
Iteration:  3717
 O        -0.607581         0.152333         0.468537
 C        -1.725793         0.837416         0.224873
 C        -3.217807         0.372946        -0.167836
 C        -3.417292         1.844499        -0.037000
 C        -2.429223         1.856035         1.128877
 C        -1.807992         3.214629         1.470763
 C        -0.816600         3.568566         0.335346
 O        -1.338027         3.126225        -0.983753
 C        -2.000878         1.910459        -0.882998
 H         0.064211         0.221139        -0.226569
 H        -3.296459        -0.195640        -1.112782
 H        -3.619033        -0.255742         0.599932
 H        -4.309936         2.368797        -0.265957
 H        -2.724159         1.365270         2.086586
 H        -2.672903         4.003238         1.526287
 H        -1.324011         3.257367         2.472431
 H        -0.467816         4.631218         0.188317
 H         0.144186         3.016272         0.691613
 H        -2.274910         1.601772        -1.872418
