19
Iteration:  3959charge 0 multiplicity 1
 O        -0.594853         0.108305         0.466498
 C        -1.771368         0.906245         0.159107
 C        -3.220836         0.255314        -0.051505
 C        -3.283835         1.814651        -0.100781
 C        -2.457166         1.904181         1.130457
 C        -1.802428         3.323813         1.482137
 C        -0.818420         3.512889         0.389140
 O        -1.354598         3.183645        -0.931920
 C        -2.041082         1.936077        -0.975086
 H        -0.164355        -0.004987        -0.377556
 H        -3.260832        -0.308132        -0.985533
 H        -3.801065        -0.183784         0.730783
 H        -4.279603         2.301592        -0.254373
 H        -2.766705         1.300504         2.054540
 H        -2.653541         4.056377         1.608846
 H        -1.308927         3.068882         2.404359
 H        -0.421448         4.501923         0.042046
 H         0.085676         2.774566         0.546977
 H        -2.092716         1.714772        -2.013560
