19
Iteration:  3937charge 0 multiplicity 1
 O        -0.593500         0.147664         0.369933
 C        -1.785514         0.867433         0.247162
 C        -3.165161         0.389673        -0.047377
 C        -3.369449         1.863184        -0.171378
 C        -2.615077         1.919791         1.222371
 C        -1.727317         3.144159         1.543082
 C        -0.832803         3.619903         0.327790
 O        -1.293902         3.095995        -0.974094
 C        -2.030662         1.828548        -0.910707
 H         0.051662         0.398080        -0.364781
 H        -3.212714        -0.268584        -0.918242
 H        -3.508514        -0.133517         0.817581
 H        -4.191028         2.505936        -0.551786
 H        -3.096908         1.400112         2.097829
 H        -2.528733         3.926007         1.661375
 H        -1.146694         2.999537         2.453783
 H        -0.802452         4.746778         0.211524
 H         0.214163         3.225569         0.322179
 H        -1.868037         1.432379        -1.885485
