19
Iteration:  1104
 O        -0.642965         0.020569         0.322944
 C        -1.703680         0.926165         0.198804
 C        -3.233717         0.309483         0.026147
 C        -3.293998         1.839519        -0.054026
 C        -2.418461         1.912186         1.225209
 C        -1.873119         3.341850         1.412526
 C        -0.728052         3.449955         0.294608
 O        -1.357466         3.151855        -0.999417
 C        -2.105640         1.941923        -0.916290
 H         0.036721         0.525818         0.833143
 H        -3.439670        -0.295752        -0.884398
 H        -3.590765        -0.213509         0.952570
 H        -4.227091         2.424886        -0.062475
 H        -2.778274         1.470663         2.158645
 H        -2.571607         4.133105         1.090792
 H        -1.428945         3.586676         2.477218
 H        -0.141529         4.397034         0.123725
 H         0.104821         2.633289         0.502554
 H        -2.276360         1.647585        -1.914410
