19
Iteration:   802charge 0 multiplicity 1
 O        -0.687746        -0.052670         0.513426
 C        -1.743332         0.779879         0.165614
 C        -3.290641         0.355593         0.062613
 C        -3.306236         1.839834         0.011816
 C        -2.307291         1.886286         1.106029
 C        -1.816669         3.303639         1.299270
 C        -0.798004         3.687133         0.267194
 O        -1.315513         3.171069        -1.010392
 C        -2.032960         1.911354        -0.867040
 H        -0.099046        -0.013866        -0.334710
 H        -3.568153        -0.059571        -0.880851
 H        -3.738179        -0.099263         0.942886
 H        -4.185410         2.501807        -0.126514
 H        -2.765274         1.510760         1.959668
 H        -2.767725         3.850387         1.300007
 H        -1.318724         3.521780         2.340916
 H        -0.579246         4.693686         0.173373
 H         0.158118         3.253762         0.612980
 H        -2.137405         1.499799        -1.873874
