19
Iteration:  2222
 O        -0.671869         0.079002         0.333491
 C        -1.730068         0.840439         0.228870
 C        -3.138499         0.316761        -0.041558
 C        -3.330409         1.841665        -0.054982
 C        -2.427840         1.890732         1.215019
 C        -1.762925         3.224198         1.403557
 C        -0.884341         3.644404         0.261711
 O        -1.369379         3.182822        -1.025055
 C        -1.978465         1.907925        -0.829147
 H        -0.649321        -0.305434         1.203091
 H        -3.499641        -0.206042        -1.017202
 H        -3.604099        -0.371328         0.767208
 H        -4.220569         2.508808        -0.319120
 H        -2.875126         1.545156         2.182716
 H        -2.501077         3.983662         1.742371
 H        -1.045821         3.068730         2.282372
 H        -0.626119         4.707793         0.251327
 H         0.140867         3.113621         0.297915
 H        -2.024569         1.500620        -1.831991
