19
Iteration:  3621
 O        -0.545527         0.278587         0.395051
 C        -1.804515         0.881981         0.176305
 C        -3.220639         0.266925        -0.182534
 C        -3.449477         1.764165        -0.101218
 C        -2.579455         1.913849         1.221730
 C        -1.693748         3.154339         1.452493
 C        -0.796751         3.527706         0.307383
 O        -1.319468         3.150376        -0.927356
 C        -1.957984         1.965064        -0.878343
 H        -0.556731        -0.342681         1.100021
 H        -3.219503        -0.075515        -1.303718
 H        -3.667740        -0.307531         0.639162
 H        -4.291087         2.368714        -0.257651
 H        -2.951584         1.492347         2.179891
 H        -2.291024         3.980578         1.654447
 H        -1.113191         2.878640         2.391459
 H        -0.625635         4.629424         0.392936
 H         0.145625         2.995407         0.391697
 H        -2.153063         1.562190        -1.921429
