19
Iteration:  3303
 O        -0.679383         0.120392         0.514166
 C        -1.757711         0.900109         0.212876
 C        -3.143682         0.260395        -0.208619
 C        -3.418629         1.878071        -0.051276
 C        -2.437848         1.826010         1.217425
 C        -1.584231         3.189499         1.560850
 C        -0.856995         3.638234         0.279041
 O        -1.377859         3.132634        -1.064260
 C        -2.116727         1.949801        -0.891486
 H         0.161522         0.232843         0.128209
 H        -3.171521        -0.060241        -1.225846
 H        -3.509579        -0.436059         0.457373
 H        -4.424468         2.392632        -0.227045
 H        -2.946995         1.578314         2.166945
 H        -2.413080         3.889152         1.716234
 H        -0.948110         2.895865         2.495551
 H        -0.798517         4.684168         0.037633
 H         0.286473         3.342870         0.466373
 H        -2.133347         1.451735        -1.931834
