19
Iteration:  3789
 O        -0.586982         0.164943         0.495077
 C        -1.812630         0.868279         0.211222
 C        -3.129748         0.326451        -0.177912
 C        -3.380358         1.848216        -0.036190
 C        -2.430695         1.865840         1.177470
 C        -1.857089         3.223473         1.439404
 C        -0.753028         3.454128         0.287314
 O        -1.332293         3.166635        -0.987150
 C        -2.113403         1.944494        -0.856041
 H         0.021155         0.763512         0.126087
 H        -3.211397        -0.151855        -1.141939
 H        -3.714731        -0.237010         0.637200
 H        -4.279073         2.474318        -0.258149
 H        -2.773192         1.272387         2.032434
 H        -2.482054         4.020651         1.440320
 H        -1.384552         3.209554         2.397937
 H        -0.247595         4.385977         0.151361
 H         0.075463         2.772598         0.569066
 H        -2.171626         1.539776        -1.915376
