19
Iteration:   567charge 0 multiplicity 1
 O        -0.641367         0.214160         0.433883
 C        -1.814651         0.892155         0.214387
 C        -3.315751         0.338848         0.129609
 C        -3.391385         1.922045        -0.014129
 C        -2.376486         1.924651         1.143589
 C        -1.792347         3.208083         1.464582
 C        -0.875643         3.619790         0.179332
 O        -1.072950         2.901137        -1.012983
 C        -2.096325         1.865606        -0.938253
 H        -0.153545         0.145460        -0.361177
 H        -3.650017        -0.280603        -0.721981
 H        -3.487624        -0.068146         1.100194
 H        -4.258703         2.455271        -0.192792
 H        -2.969143         1.637838         2.055093
 H        -2.624416         3.972330         1.562362
 H        -1.186814         3.193577         2.379081
 H        -1.059406         4.721062        -0.286166
 H         0.148424         3.440872         0.341184
 H        -1.967648         1.401982        -2.050411
