19
Iteration:   735
 O        -0.616134         0.278250         0.383564
 C        -1.818333         0.843269         0.275827
 C        -3.284588         0.309715         0.097542
 C        -3.376422         1.818562        -0.118736
 C        -2.470549         1.941178         1.181392
 C        -1.673792         3.251334         1.435667
 C        -0.716459         3.466400         0.266690
 O        -1.297820         3.044202        -1.020432
 C        -2.107761         1.844987        -0.940316
 H         0.108622         0.834156         0.218070
 H        -3.567228        -0.146230        -0.833202
 H        -3.816263        -0.098960         0.971923
 H        -4.306225         2.420331        -0.374274
 H        -3.012720         1.598074         2.036863
 H        -2.376765         4.102360         1.321160
 H        -1.273641         3.272047         2.505757
 H        -0.496183         4.530565         0.246033
 H         0.248885         2.977281         0.386281
 H        -2.106663         1.365748        -1.962057
