19
Iteration:   833charge 0 multiplicity 1
 O        -0.694313         0.069717         0.591685
 C        -1.779180         0.898381         0.264858
 C        -3.127465         0.317876        -0.084793
 C        -3.352394         1.878317        -0.109964
 C        -2.423717         1.935794         1.197886
 C        -1.617291         3.245465         1.479122
 C        -0.838343         3.548573         0.178724
 O        -1.424848         3.150602        -1.077853
 C        -2.068572         1.918980        -0.872995
 H        -0.380736        -0.249590        -0.233324
 H        -3.155395        -0.128177        -1.047851
 H        -3.656704        -0.221195         0.723411
 H        -4.314936         2.394442        -0.356247
 H        -3.020422         1.520013         2.022538
 H        -2.299627         4.036411         1.927721
 H        -0.822116         3.063287         2.268844
 H        -0.564180         4.581593         0.152090
 H         0.092406         2.924106         0.296674
 H        -2.090221         1.362850        -1.898842
