19
Iteration:  3359
 O        -0.580648         0.242622         0.341876
 C        -1.722710         0.912412         0.157999
 C        -3.150175         0.299490        -0.011350
 C        -3.386323         1.830370        -0.113500
 C        -2.536321         1.917139         1.172149
 C        -1.774855         3.265710         1.446243
 C        -0.779922         3.461133         0.390806
 O        -1.362748         3.115776        -0.860114
 C        -2.055595         1.880605        -0.952622
 H        -0.495776        -0.536491        -0.312972
 H        -3.231440        -0.269819        -0.931533
 H        -3.577436        -0.190781         0.798009
 H        -4.274553         2.327628        -0.345914
 H        -2.862583         1.606164         2.155900
 H        -2.555804         4.068223         1.569774
 H        -1.209436         3.205452         2.439857
 H        -0.538560         4.463797         0.047390
 H         0.186349         2.852572         0.576137
 H        -2.072117         1.668725        -2.072127
