19
Iteration:   450charge 0 multiplicity 1
 O        -0.578354         0.334824         0.485664
 C        -1.851847         0.897961         0.288108
 C        -3.277742         0.302106        -0.064725
 C        -3.363354         1.832731        -0.056918
 C        -2.478066         1.965884         1.258259
 C        -1.652887         3.273016         1.350489
 C        -0.764299         3.466202         0.258804
 O        -1.368626         3.031962        -1.030851
 C        -2.023165         1.804085        -0.877125
 H        -0.530373        -0.401670        -0.143053
 H        -3.361323        -0.104493        -1.114627
 H        -3.894583        -0.171058         0.711602
 H        -4.179821         2.446428        -0.424012
 H        -2.858942         1.451900         2.133795
 H        -2.317925         4.116035         1.567756
 H        -1.144679         3.068777         2.326821
 H        -0.485711         4.553055         0.105619
 H         0.281860         3.025234         0.258296
 H        -2.017912         1.374531        -1.870261
