19
Iteration:  4947charge 0 multiplicity 1
 O        -0.508444         0.279407         0.294336
 C        -1.803731         0.909117         0.083294
 C        -3.058161         0.217088        -0.286384
 C        -3.381535         1.756260        -0.306073
 C        -2.646697         1.827105         1.054925
 C        -1.908724         3.125794         1.636010
 C        -0.839661         3.460099         0.614034
 O        -1.288023         3.310104        -0.700839
 C        -1.920330         2.032794        -0.934110
 H        -0.707697        -0.660488         0.474341
 H        -2.974568        -0.208378        -1.248907
 H        -3.558873        -0.274190         0.505061
 H        -4.279264         2.336472        -0.488662
 H        -3.039323         1.341482         1.947519
 H        -2.617405         3.948792         1.787104
 H        -1.527326         2.772474         2.554780
 H        -0.592829         4.496320         0.644326
 H         0.107034         2.845667         0.661582
 H        -1.950945         1.771997        -1.969019
