19
Iteration:  2506
 O        -0.526627         0.156149         0.277866
 C        -1.781158         0.909118         0.278131
 C        -3.146075         0.297564        -0.051040
 C        -3.408193         1.800238        -0.108543
 C        -2.443843         1.943815         1.253712
 C        -1.800679         3.359197         1.421769
 C        -0.758854         3.412323         0.340956
 O        -1.380914         3.159497        -0.943335
 C        -2.102837         1.938584        -0.888051
 H        -0.735179        -0.729508         0.467464
 H        -3.147325        -0.075913        -1.098167
 H        -3.581128        -0.539095         0.565246
 H        -4.417132         2.304679        -0.445702
 H        -2.709586         1.439863         2.173099
 H        -2.653998         4.086836         1.390757
 H        -1.186865         3.457740         2.415307
 H        -0.343143         4.464899         0.217239
 H         0.118868         2.766246         0.620958
 H        -2.119129         1.578489        -1.917958
