19
Iteration:  1959charge 0 multiplicity 1
 O        -0.528794         0.160770         0.410343
 C        -1.752095         0.912418         0.250570
 C        -3.191015         0.289285        -0.063304
 C        -3.405700         1.829706        -0.059406
 C        -2.375621         1.919047         1.207307
 C        -1.744358         3.284563         1.414456
 C        -0.753643         3.519106         0.228226
 O        -1.395598         3.135401        -0.978286
 C        -2.152712         1.899523        -0.925337
 H        -0.932280        -0.571014         0.904405
 H        -3.377596        -0.244892        -0.990216
 H        -3.546150        -0.320314         0.724842
 H        -4.231778         2.609344        -0.155722
 H        -2.755160         1.486072         2.093845
 H        -2.598145         3.971502         1.416026
 H        -1.279075         3.316632         2.395779
 H        -0.455211         4.518690         0.295111
 H         0.080353         2.845578         0.500016
 H        -2.204462         1.537456        -2.027146
