19
Iteration:  3954
 O        -0.593400         0.110396         0.446694
 C        -1.775289         0.888168         0.180341
 C        -3.196019         0.220276        -0.039448
 C        -3.305085         1.866478        -0.155159
 C        -2.422212         1.940582         1.137337
 C        -1.797447         3.295126         1.500864
 C        -0.872444         3.490445         0.384079
 O        -1.343367         3.162035        -0.939451
 C        -2.022075         1.938284        -0.955259
 H        -0.150601         0.133577        -0.474831
 H        -3.397979        -0.351920        -0.989658
 H        -3.827238        -0.207081         0.787603
 H        -4.253157         2.349264        -0.263057
 H        -2.977701         1.536915         1.991115
 H        -2.516836         4.057602         1.765479
 H        -1.165314         3.135743         2.411814
 H        -0.564532         4.523972         0.149562
 H         0.041283         2.909344         0.631692
 H        -2.107173         1.608738        -2.049139
