19
Iteration:  4858
 O        -0.594925         0.005797         0.393390
 C        -1.730521         0.847434         0.145419
 C        -3.018137         0.293303        -0.338910
 C        -3.298703         1.813310        -0.246136
 C        -2.545088         1.848080         1.091440
 C        -1.960608         3.107994         1.633268
 C        -0.921936         3.535172         0.576218
 O        -1.329262         3.338035        -0.838633
 C        -2.000766         2.086023        -0.942351
 H         0.136876         0.640843         0.205754
 H        -3.139440        -0.216517        -1.280390
 H        -3.483058        -0.157754         0.524894
 H        -4.190465         2.429160        -0.348007
 H        -3.009434         1.121728         1.802285
 H        -2.638686         3.895930         2.000140
 H        -1.222328         2.913073         2.397797
 H        -0.541372         4.545521         0.795920
 H        -0.086551         2.712634         0.733818
 H        -1.929365         1.965598        -2.031381
