19
Iteration:   429charge 0 multiplicity 1
 O        -0.521328         0.178365         0.413024
 C        -1.794500         0.850829         0.278606
 C        -3.278894         0.341277         0.025960
 C        -3.380071         1.905869        -0.074518
 C        -2.477742         1.967315         1.194560
 C        -1.769427         3.323265         1.432465
 C        -0.793754         3.553362         0.242190
 O        -1.239348         2.932679        -1.030116
 C        -2.098090         1.856796        -0.861961
 H        -0.259677         0.186674        -0.560850
 H        -3.375774        -0.280151        -0.906801
 H        -3.785229        -0.014653         0.951946
 H        -4.318987         2.507952        -0.224917
 H        -3.123597         1.499672         1.974926
 H        -2.624431         4.049157         1.375695
 H        -1.372028         3.440469         2.512394
 H        -0.435501         4.553794         0.051764
 H         0.168136         3.009125         0.392587
 H        -2.181388         1.406996        -1.831625
