19
Iteration:  3000charge 0 multiplicity 1
 O        -0.565867         0.239388         0.363323
 C        -1.806421         0.906254         0.136781
 C        -3.201307         0.308791        -0.080741
 C        -3.428240         1.747783        -0.094029
 C        -2.445927         1.849731         1.244816
 C        -1.668868         3.210973         1.497357
 C        -0.781858         3.531588         0.310830
 O        -1.324987         3.121425        -0.956752
 C        -2.133353         1.937578        -0.956363
 H        -0.311332         0.479156         1.246798
 H        -3.617396        -0.102345        -1.052267
 H        -3.577554        -0.269158         0.739320
 H        -4.368141         2.367269        -0.217338
 H        -2.917918         1.470448         2.164918
 H        -2.470534         4.077219         1.568791
 H        -1.154438         3.001081         2.449277
 H        -0.456652         4.566369        -0.011098
 H         0.226726         2.999105         0.556411
 H        -2.102286         1.451717        -1.956480
