19
Iteration:  1561charge 0 multiplicity 1
 O        -0.633761         0.218709         0.468814
 C        -1.817808         0.929638         0.197491
 C        -3.202720         0.203110         0.013302
 C        -3.433678         1.805615        -0.128645
 C        -2.452553         1.867091         1.192522
 C        -1.630346         3.115723         1.508296
 C        -0.754032         3.524367         0.224774
 O        -1.271998         3.223160        -1.032880
 C        -2.139264         1.983276        -1.046936
 H        -0.683469         0.020890         1.431544
 H        -3.324734        -0.359153        -0.884232
 H        -3.632365        -0.343184         0.841751
 H        -4.240086         2.443103        -0.127335
 H        -3.026287         1.493340         2.033993
 H        -2.319649         3.975199         1.789848
 H        -1.076642         2.893986         2.480839
 H        -0.678744         4.670146         0.178303
 H         0.270997         3.273722         0.441946
 H        -2.225853         1.447357        -1.998474
