19
Iteration:  3597
 O        -0.535117         0.331650         0.380989
 C        -1.805226         0.990988         0.196356
 C        -3.168019         0.227075        -0.182788
 C        -3.446380         1.867293        -0.096129
 C        -2.468215         1.806686         1.208962
 C        -1.794162         3.216469         1.503117
 C        -0.755402         3.369748         0.355946
 O        -1.248671         3.101824        -0.953275
 C        -2.159057         1.978591        -0.982086
 H        -0.372478         0.303338         1.335547
 H        -3.200180        -0.139012        -1.246212
 H        -3.545370        -0.319899         0.661797
 H        -4.281138         2.523473        -0.014475
 H        -2.866505         1.216306         2.074269
 H        -2.503310         3.988498         1.518126
 H        -1.382735         3.012174         2.487991
 H        -0.457035         4.393261         0.268677
 H         0.108183         2.727468         0.675131
 H        -2.393581         1.609042        -1.949490
