19
Iteration:   860
 O        -0.569616         0.327107         0.670304
 C        -1.879592         0.916932         0.201051
 C        -3.215054         0.240835        -0.091277
 C        -3.455171         1.835674        -0.117151
 C        -2.523459         1.890820         1.149224
 C        -1.516064         3.131898         1.428804
 C        -0.665113         3.446011         0.185272
 O        -1.427529         3.188236        -1.003695
 C        -2.100412         1.947276        -0.929593
 H        -0.392905        -0.491137         0.229089
 H        -3.445616        -0.411581        -0.989155
 H        -3.764785        -0.209919         0.752038
 H        -4.407398         2.332017        -0.273019
 H        -3.094374         1.495006         2.009449
 H        -2.020272         4.047291         1.717628
 H        -0.812214         2.830795         2.270206
 H        -0.734478         4.562146         0.246640
 H         0.316624         2.863102         0.086105
 H        -2.030902         1.562275        -1.919959
