19
Iteration:  3366
 O        -0.565456         0.229593         0.315820
 C        -1.735989         0.926259         0.174145
 C        -3.140393         0.256221        -0.004594
 C        -3.372415         1.823527        -0.150334
 C        -2.512365         2.007869         1.190019
 C        -1.795943         3.238951         1.418097
 C        -0.748015         3.463375         0.406170
 O        -1.366404         3.110491        -0.897788
 C        -2.102010         1.931512        -0.912838
 H        -0.648051        -0.615759        -0.163380
 H        -2.997296        -0.244900        -1.016560
 H        -3.587126        -0.550501         0.717936
 H        -4.426960         2.342099        -0.217986
 H        -2.987747         1.605714         2.111158
 H        -2.528670         3.998279         1.614569
 H        -1.244459         3.271037         2.392939
 H        -0.302099         4.472612         0.356510
 H         0.067632         2.792922         0.656741
 H        -2.145045         1.451223        -1.884472
