19
Iteration:   830charge 0 multiplicity 1
 O        -0.684377         0.041927         0.592852
 C        -1.766611         0.852775         0.256536
 C        -3.135990         0.307218        -0.081757
 C        -3.358471         1.887349        -0.121641
 C        -2.423611         1.940771         1.206210
 C        -1.617586         3.274601         1.496812
 C        -0.848886         3.525700         0.184020
 O        -1.428712         3.142477        -1.078848
 C        -2.072113         1.962813        -0.898509
 H        -0.345921        -0.220840        -0.288590
 H        -3.173174        -0.196798        -1.084040
 H        -3.674188        -0.102096         0.802182
 H        -4.263619         2.486663        -0.314501
 H        -2.999068         1.435122         2.088963
 H        -2.314220         4.045477         1.888373
 H        -0.887697         3.230759         2.247713
 H        -0.549529         4.643451         0.120849
 H         0.147124         3.090835         0.370180
 H        -2.053718         1.347847        -1.845811
