19
Iteration:   512
 O        -0.680316         0.100264         0.757693
 C        -1.811886         0.860794         0.310276
 C        -3.185424         0.299439        -0.122984
 C        -3.349026         1.855795        -0.107547
 C        -2.424271         1.907725         1.217914
 C        -1.592306         3.267140         1.374905
 C        -0.711765         3.491950         0.075312
 O        -1.613874         3.265837        -0.983754
 C        -2.001299         1.903749        -0.983107
 H        -0.438062        -0.544939         0.080598
 H        -3.116202        -0.145157        -1.134272
 H        -3.718765        -0.344681         0.530213
 H        -4.226659         2.318139        -0.414616
 H        -2.680294         1.509052         2.224925
 H        -2.101783         4.228282         1.505058
 H        -0.886121         3.178134         2.191864
 H        -0.136712         4.538021         0.038915
 H         0.177182         2.812515         0.118368
 H        -1.867056         1.288705        -1.982140
