19
Iteration:  4427
 O        -0.507116         0.179993         0.269944
 C        -1.699623         0.948970         0.128531
 C        -3.166449         0.269675        -0.138570
 C        -3.314741         1.875250        -0.196646
 C        -2.611390         1.962025         1.153089
 C        -1.833511         3.184663         1.583241
 C        -0.876811         3.451122         0.469932
 O        -1.325964         3.149937        -0.893883
 C        -2.042332         1.913710        -0.948732
 H        -0.238867         0.110315         1.188506
 H        -3.197529        -0.357600        -1.017801
 H        -3.571806        -0.268845         0.722366
 H        -4.276642         2.378348        -0.343952
 H        -3.099059         1.431483         2.049402
 H        -2.524661         3.998238         1.892943
 H        -1.233038         2.887683         2.498719
 H        -0.641415         4.530499         0.435892
 H         0.098349         2.912882         0.665436
 H        -2.041958         1.564932        -2.025866
