19
Iteration:  2232
 O        -0.617596         0.050631         0.422650
 C        -1.795452         0.867746         0.202839
 C        -3.182316         0.317810        -0.091048
 C        -3.271334         1.781249        -0.015352
 C        -2.459121         1.870183         1.255104
 C        -1.703071         3.210748         1.448717
 C        -0.818473         3.640229         0.210382
 O        -1.401960         3.223575        -1.009154
 C        -2.027656         1.966973        -0.954844
 H        -0.663938        -0.397250         1.228374
 H        -3.331450        -0.261096        -1.064227
 H        -3.650721        -0.090196         0.892474
 H        -4.274442         2.228098        -0.362492
 H        -3.008512         1.404166         2.082416
 H        -2.523596         3.847467         1.628872
 H        -1.060340         3.258384         2.398942
 H        -0.650070         4.687319         0.017699
 H         0.135180         3.140184         0.532013
 H        -2.163827         1.665254        -1.941672
