19
Iteration:  1925charge 0 multiplicity 1
 O        -0.512468         0.366992         0.418861
 C        -1.793856         0.971103         0.262294
 C        -3.171321         0.194254        -0.010707
 C        -3.398787         1.825959        -0.103954
 C        -2.576578         2.020383         1.171137
 C        -1.666987         3.128095         1.388382
 C        -0.695895         3.355775         0.242685
 O        -1.446092         3.201151        -0.958475
 C        -2.114882         1.876353        -0.916338
 H        -0.651454        -0.481167         0.985375
 H        -3.329554        -0.325450        -0.982019
 H        -3.334792        -0.314914         0.932164
 H        -4.343786         2.503622        -0.313934
 H        -3.069559         1.591042         2.015464
 H        -2.091492         4.085989         1.611324
 H        -1.190543         2.773730         2.351418
 H        -0.115804         4.301849         0.232709
 H         0.049715         2.545223         0.085855
 H        -2.165569         1.509071        -1.984552
