19
Iteration:  1153charge 0 multiplicity 1
 O        -0.679100         0.145658         0.311885
 C        -1.822560         0.893192         0.289902
 C        -3.150344         0.242779        -0.021893
 C        -3.426047         1.859926        -0.042491
 C        -2.471866         1.946016         1.264929
 C        -1.714832         3.258863         1.407351
 C        -0.783867         3.543573         0.288621
 O        -1.202797         3.029440        -0.957565
 C        -2.110242         1.921903        -0.888571
 H        -0.253723         0.599620        -0.434673
 H        -3.130526        -0.277545        -0.985329
 H        -3.725452        -0.238909         0.736585
 H        -4.382623         2.251542        -0.379671
 H        -3.016312         1.732298         2.196160
 H        -2.513819         4.066723         1.376440
 H        -1.143615         3.504823         2.253092
 H        -0.787640         4.607693         0.138047
 H         0.236238         3.214470         0.503101
 H        -2.009986         1.459971        -1.936321
