19
Iteration:  4615charge 0 multiplicity 1
 O        -0.583067         0.198162         0.256947
 C        -1.778151         0.849093         0.142002
 C        -3.108947         0.195143        -0.257112
 C        -3.363140         1.774869        -0.149456
 C        -2.514489         1.831610         1.148636
 C        -1.901017         3.246857         1.548699
 C        -0.816038         3.462680         0.499107
 O        -1.298205         3.284295        -0.779843
 C        -1.972506         1.989225        -0.948915
 H        -0.148987         0.528331         1.145066
 H        -3.282417        -0.175792        -1.262306
 H        -3.779506        -0.399144         0.364515
 H        -4.186568         2.441321        -0.388549
 H        -2.969047         1.389409         2.084599
 H        -2.736013         3.970824         1.501031
 H        -1.504099         3.252656         2.584858
 H        -0.267941         4.432413         0.483326
 H        -0.069492         2.731200         0.729688
 H        -2.096812         1.645364        -1.971569
