19
Iteration:  1536charge 0 multiplicity 1
 O        -0.560426         0.162554         0.367586
 C        -1.766934         0.902761         0.245592
 C        -3.165132         0.346234        -0.071147
 C        -3.362141         1.806755        -0.126649
 C        -2.488879         1.995070         1.188253
 C        -1.700792         3.275919         1.397622
 C        -0.741671         3.431374         0.248416
 O        -1.488932         3.161465        -0.897305
 C        -2.045561         1.889683        -0.898956
 H        -0.592124        -0.324733         1.261540
 H        -3.212610        -0.108625        -1.105200
 H        -3.807446        -0.197794         0.655241
 H        -4.278788         2.353355        -0.410594
 H        -2.879800         1.635841         2.147272
 H        -2.266399         4.109509         1.633832
 H        -1.315719         2.873458         2.441872
 H        -0.174789         4.386786         0.115184
 H         0.058423         2.711714         0.440453
 H        -2.086297         1.337214        -1.802677
