19
Iteration:  3075charge 0 multiplicity 1
 O        -0.573921         0.155940         0.339433
 C        -1.730260         0.915359         0.256414
 C        -3.186946         0.262600        -0.011839
 C        -3.386375         1.823762        -0.126836
 C        -2.484567         1.906660         1.194134
 C        -1.714190         3.210878         1.454940
 C        -0.769874         3.584702         0.279015
 O        -1.353422         3.185279        -0.935241
 C        -2.082835         1.941978        -0.881773
 H        -0.791473        -0.805609         0.190195
 H        -3.210728        -0.457773        -0.959976
 H        -3.575183        -0.289166         0.884310
 H        -4.405980         2.269852        -0.363369
 H        -3.045122         1.507006         2.090371
 H        -2.484643         4.043133         1.391732
 H        -1.291398         3.081102         2.434931
 H        -0.618635         4.679667         0.299387
 H         0.107369         2.870388         0.286931
 H        -2.176346         1.627250        -1.984415
