19
Iteration:  4277charge 0 multiplicity 1
 O        -0.460683         0.097163         0.403328
 C        -1.749123         0.911038         0.192818
 C        -3.303578         0.312574        -0.185736
 C        -3.379183         1.835096        -0.054381
 C        -2.439136         1.808989         1.198657
 C        -1.841069         3.180353         1.446032
 C        -0.827554         3.540420         0.354167
 O        -1.280481         3.208236        -0.940184
 C        -2.094174         1.987162        -0.938302
 H        -0.257652         0.303826         1.275228
 H        -3.273578        -0.130134        -1.191343
 H        -3.728137        -0.345061         0.615232
 H        -4.320464         2.359177        -0.291146
 H        -2.935744         1.344831         2.059529
 H        -2.648363         3.965338         1.406587
 H        -1.367115         3.341172         2.406734
 H        -0.469612         4.577687         0.438229
 H         0.044076         2.896245         0.363784
 H        -2.168986         1.619144        -1.951558
