19
Iteration:  4290
 O        -0.622688         0.183344         0.386617
 C        -1.688023         0.950354         0.187581
 C        -3.107400         0.350825        -0.188658
 C        -3.389326         1.818438        -0.044424
 C        -2.512343         1.810651         1.219689
 C        -1.856249         3.119268         1.453626
 C        -0.805678         3.452321         0.325166
 O        -1.269272         3.126240        -1.009588
 C        -2.072020         2.063349        -0.880761
 H        -0.076495         0.341097         1.254166
 H        -3.279619        -0.135438        -1.200832
 H        -3.668303        -0.215781         0.596772
 H        -4.309213         2.405034         0.104044
 H        -2.889196         1.267676         2.185392
 H        -2.682938         3.869947         1.404187
 H        -1.408583         3.049244         2.449460
 H        -0.762586         4.550493         0.226954
 H         0.156586         3.120211         0.660079
 H        -2.227908         1.737525        -1.884635
