19
Iteration:  4461
 O        -0.574056         0.152067         0.343687
 C        -1.794893         0.942787         0.204199
 C        -3.193840         0.206645        -0.217943
 C        -3.399833         1.758477        -0.202097
 C        -2.522379         1.876452         1.179156
 C        -1.834596         3.190483         1.486268
 C        -0.767886         3.508065         0.500219
 O        -1.332198         3.244304        -0.866741
 C        -1.995262         1.967774        -0.920631
 H         0.314678         0.525905        -0.110520
 H        -3.170382        -0.344588        -1.141105
 H        -3.711268        -0.231660         0.642291
 H        -4.341658         2.392056        -0.280026
 H        -2.923256         1.441784         2.167896
 H        -2.549568         4.058888         1.481585
 H        -1.247269         3.281831         2.443217
 H        -0.519173         4.564665         0.689047
 H         0.102867         2.837406         0.763413
 H        -1.951081         1.450806        -1.933279
