19
Iteration:  3928
 O        -0.598997         0.146242         0.380931
 C        -1.783115         0.954236         0.250554
 C        -3.227650         0.302391        -0.071557
 C        -3.355081         1.856047        -0.124698
 C        -2.593306         1.890774         1.198314
 C        -1.739304         3.137546         1.491267
 C        -0.804832         3.620250         0.302405
 O        -1.279648         3.072933        -0.984657
 C        -1.962140         1.885269        -0.859454
 H        -0.024416         0.685156        -0.263454
 H        -3.267452        -0.180829        -1.031435
 H        -3.922977        -0.164146         0.654915
 H        -4.360962         2.267863        -0.426800
 H        -3.024399         1.393266         2.064543
 H        -2.288831         4.036881         1.891654
 H        -1.199230         2.833523         2.428792
 H        -0.953785         4.651688         0.059571
 H         0.197037         3.519934         0.555063
 H        -2.104806         1.412937        -1.808463
