19
Iteration:  3300
 O        -0.693906         0.109877         0.498613
 C        -1.756457         0.907717         0.241076
 C        -3.123958         0.258696        -0.199697
 C        -3.437432         1.848435        -0.046894
 C        -2.432791         1.828444         1.221750
 C        -1.560783         3.206179         1.564085
 C        -0.855552         3.650950         0.291791
 O        -1.375089         3.143876        -1.060962
 C        -2.117317         1.936662        -0.939683
 H         0.199906         0.249294         0.153714
 H        -3.138851        -0.143128        -1.230165
 H        -3.638808        -0.490279         0.508197
 H        -4.417864         2.466461        -0.337566
 H        -3.003782         1.561656         2.086981
 H        -2.333222         3.953537         1.796972
 H        -0.988287         2.891232         2.456769
 H        -0.765060         4.715280         0.085738
 H         0.194945         3.345615         0.501396
 H        -2.195774         1.470087        -1.906196
