19
Iteration:  4022
 O        -0.493160         0.279032         0.467078
 C        -1.772323         0.950512         0.152375
 C        -3.229910         0.275849        -0.121778
 C        -3.348686         1.831527        -0.133281
 C        -2.537854         1.958701         1.141656
 C        -1.688392         3.157828         1.551749
 C        -0.864785         3.449673         0.348027
 O        -1.400378         3.135497        -0.941154
 C        -2.034322         1.953777        -0.987823
 H        -0.796931        -0.663562         0.446095
 H        -3.280257        -0.372853        -1.080095
 H        -3.576173        -0.297174         0.742728
 H        -4.285709         2.348561        -0.361793
 H        -2.861695         1.327054         1.990632
 H        -2.255880         4.060886         1.779715
 H        -1.093908         3.038675         2.428712
 H        -0.519968         4.516410         0.426590
 H         0.040814         2.820007         0.476565
 H        -1.954492         1.395341        -1.971680
