19
Iteration:  2053
 O        -0.622579         0.221240         0.396389
 C        -1.800852         0.812815         0.264169
 C        -3.179543         0.348750        -0.106493
 C        -3.327386         1.921359         0.001011
 C        -2.406068         1.885178         1.224559
 C        -1.670991         3.134199         1.414978
 C        -0.914827         3.655673         0.195253
 O        -1.304907         3.053597        -0.999196
 C        -2.038913         1.875738        -0.905175
 H        -0.518417        -0.305222         1.192644
 H        -3.444144        -0.139922        -1.105542
 H        -3.802943        -0.164790         0.676155
 H        -4.270839         2.484790        -0.047871
 H        -3.072058         1.424367         2.015676
 H        -2.421493         3.902283         1.710414
 H        -0.964373         2.922103         2.264799
 H        -1.197265         4.771128         0.052442
 H         0.170287         3.482696         0.383248
 H        -2.164856         1.347834        -1.858113
