19
Iteration:  3944charge 0 multiplicity 1
 O        -0.601545         0.143028         0.390328
 C        -1.773415         0.816405         0.246805
 C        -3.151930         0.305536        -0.048899
 C        -3.377175         1.885102        -0.192711
 C        -2.493156         1.965966         1.194297
 C        -1.772184         3.189736         1.551835
 C        -0.874336         3.564960         0.322863
 O        -1.316534         3.113230        -0.951103
 C        -2.032157         1.891421        -0.951245
 H         0.038980         0.219203        -0.422704
 H        -3.377547        -0.308690        -0.983265
 H        -3.491138        -0.138696         0.925004
 H        -4.175732         2.550963        -0.440667
 H        -3.169230         1.611988         2.011498
 H        -2.481725         3.998919         1.718503
 H        -1.076418         3.185800         2.394846
 H        -0.706131         4.667243         0.490696
 H         0.157858         3.008771         0.515585
 H        -1.936465         1.398492        -2.005618
