19
Iteration:    63charge 0 multiplicity 1
 O        -0.820765        -0.157359         0.471908
 C        -1.769224         0.808223         0.346708
 C        -3.232612         0.437089         0.093646
 C        -3.187445         1.961643        -0.047009
 C        -2.335353         2.041262         1.200946
 C        -1.603904         3.278099         1.500068
 C        -1.308807         3.860652         0.006389
 O        -1.035623         2.917190        -1.087261
 C        -1.960650         1.798188        -0.876301
 H        -0.229500        -0.174164        -0.266468
 H        -3.330822        -0.188326        -0.791538
 H        -3.961212         0.173441         0.967305
 H        -4.047381         2.525744        -0.061450
 H        -3.023737         1.712109         2.088888
 H        -2.112587         3.936726         2.239860
 H        -0.612731         2.936725         1.954877
 H        -2.167348         4.542106        -0.432273
 H        -0.522144         4.566185        -0.000906
 H        -2.099217         1.298511        -1.837605
