19
Iteration:  4942charge 0 multiplicity 1
 O        -0.504247         0.286237         0.303551
 C        -1.776924         0.947091         0.079727
 C        -3.067699         0.265628        -0.256124
 C        -3.409948         1.772191        -0.293617
 C        -2.620432         1.846490         1.052865
 C        -1.923758         3.079662         1.613702
 C        -0.850628         3.451760         0.593312
 O        -1.306156         3.254616        -0.696993
 C        -1.904752         2.066191        -0.959905
 H        -0.837635        -0.622937         0.356814
 H        -2.895164        -0.283136        -1.270718
 H        -3.446586        -0.394971         0.622491
 H        -4.257247         2.432636        -0.568011
 H        -3.099513         1.278015         1.901292
 H        -2.688471         3.855328         1.849194
 H        -1.388488         2.726252         2.587429
 H        -0.633971         4.547663         0.874921
 H         0.020583         2.842514         0.717876
 H        -1.749464         1.560542        -2.032321
