19
Iteration:  2209charge 0 multiplicity 1
 O        -0.546049         0.045120         0.267300
 C        -1.816223         0.924312         0.276491
 C        -3.210330         0.289462        -0.049598
 C        -3.362644         1.891427        -0.060569
 C        -2.443395         1.954164         1.198886
 C        -1.755343         3.273407         1.481528
 C        -0.866506         3.604264         0.274969
 O        -1.344917         3.106683        -0.980115
 C        -2.027883         1.859067        -0.936742
 H        -0.467004        -0.426980         1.173309
 H        -3.013230        -0.272197        -1.007366
 H        -3.686425        -0.218740         0.847972
 H        -4.280917         2.577345        -0.071779
 H        -2.824466         1.424049         2.064014
 H        -2.465631         4.014816         1.611927
 H        -1.121655         3.270782         2.445238
 H        -0.925807         4.662086         0.107822
 H         0.186079         3.290396         0.568909
 H        -1.953879         1.421597        -1.861839
