19
Iteration:  2198
 O        -0.520329         0.105068         0.252009
 C        -1.763103         0.843065         0.218386
 C        -3.204699         0.347646        -0.021457
 C        -3.347274         1.829036        -0.080223
 C        -2.465387         1.953735         1.257604
 C        -1.761960         3.314533         1.513999
 C        -0.854204         3.633318         0.295005
 O        -1.304555         3.019040        -0.952198
 C        -2.081354         1.894856        -0.962039
 H        -0.479743        -0.414128         1.039026
 H        -3.455412        -0.266985        -0.954693
 H        -3.838186        -0.165657         0.780831
 H        -4.338609         2.327780        -0.366282
 H        -3.056707         1.609637         2.100142
 H        -2.544288         3.986694         1.578217
 H        -1.207680         3.335255         2.527445
 H        -0.743220         4.675473         0.068031
 H         0.247799         3.270927         0.399860
 H        -2.237566         1.584413        -1.927460
