19
Iteration:  3799
 O        -0.601289         0.074844         0.518829
 C        -1.718241         0.817215         0.213043
 C        -3.158312         0.350776        -0.102026
 C        -3.388062         1.893119        -0.046068
 C        -2.448203         1.845816         1.214393
 C        -1.828701         3.207209         1.381409
 C        -0.839671         3.481716         0.290513
 O        -1.313162         3.192863        -0.984539
 C        -2.086221         2.033272        -0.975399
 H         0.166727         0.526157         0.245973
 H        -3.288183        -0.010516        -1.135726
 H        -3.645191        -0.392501         0.632093
 H        -4.415534         2.370963        -0.151359
 H        -2.643155         1.411869         2.201038
 H        -2.638260         3.892936         1.414535
 H        -1.286654         3.237854         2.323739
 H        -0.586462         4.529180         0.324860
 H         0.078433         2.770288         0.583097
 H        -2.099557         1.556877        -1.990754
