19
Iteration:  4421charge 0 multiplicity 1
 O        -0.493309         0.195438         0.284354
 C        -1.725452         0.904614         0.183461
 C        -3.194410         0.283005        -0.151006
 C        -3.402677         1.832458        -0.180232
 C        -2.515604         1.921989         1.153710
 C        -1.816210         3.181766         1.586210
 C        -0.903805         3.441969         0.459708
 O        -1.291708         3.193776        -0.919658
 C        -2.016186         1.958167        -0.933990
 H        -0.472890         0.031435         1.220980
 H        -3.226486        -0.263091        -1.122675
 H        -3.583307        -0.272737         0.718901
 H        -4.304575         2.422856        -0.429505
 H        -3.045809         1.320772         1.854771
 H        -2.478107         4.039233         1.772384
 H        -1.374058         2.973134         2.542296
 H        -0.753219         4.513346         0.330219
 H         0.029900         2.888313         0.486850
 H        -1.929616         1.564159        -1.926736
