19
Iteration:   373
 O        -0.581393        -0.022529         0.384098
 C        -1.775477         0.831286         0.244780
 C        -3.234515         0.349878         0.005006
 C        -3.306465         1.831497         0.009578
 C        -2.421350         2.044750         1.297612
 C        -1.786701         3.385254         1.302868
 C        -0.748073         3.515035         0.172654
 O        -1.365729         3.146928        -0.988514
 C        -2.079718         1.834267        -0.896829
 H        -0.521471        -0.142522         1.329149
 H        -3.238694        -0.118403        -1.051403
 H        -3.785994        -0.361855         0.595571
 H        -4.183423         2.362583        -0.266312
 H        -3.032155         1.666030         2.169186
 H        -2.614045         4.122040         1.089987
 H        -1.297303         3.612812         2.331239
 H        -0.587638         4.660505         0.152239
 H         0.143270         2.865598         0.321868
 H        -2.093482         1.560639        -1.926546
