19
Iteration:  4603charge 0 multiplicity 1
 O        -0.516651         0.203371         0.352191
 C        -1.773706         0.882341         0.097927
 C        -3.183358         0.270341        -0.332444
 C        -3.424696         1.789651        -0.114206
 C        -2.468099         1.797590         1.218556
 C        -1.908181         3.197074         1.475206
 C        -0.773978         3.460709         0.498840
 O        -1.301913         3.240472        -0.849637
 C        -2.031758         2.042096        -0.898814
 H        -0.555804         0.006790         1.326751
 H        -3.021774         0.030796        -1.367721
 H        -3.377166        -0.584020         0.313557
 H        -4.448770         2.206992        -0.156396
 H        -2.942488         1.185319         2.050740
 H        -2.708982         3.944801         1.427495
 H        -1.385288         3.343690         2.439214
 H        -0.487647         4.517337         0.604202
 H         0.051994         2.802334         0.635094
 H        -1.855654         1.899167        -1.954672
