19
Iteration:  2758charge 0 multiplicity 1
 O        -0.603329         0.097555         0.439994
 C        -1.787287         0.948972         0.236907
 C        -3.151010         0.236834        -0.157014
 C        -3.390765         1.746114        -0.146933
 C        -2.452813         1.938605         1.234081
 C        -1.658418         3.270996         1.484693
 C        -0.825632         3.565732         0.303854
 O        -1.411476         3.244756        -0.966570
 C        -2.044357         1.925228        -0.930754
 H        -1.008786        -0.845361         0.389955
 H        -3.222297        -0.311523        -1.065448
 H        -3.539159        -0.289898         0.692542
 H        -4.231330         2.317922        -0.372810
 H        -2.871497         1.431857         2.194377
 H        -2.314682         4.086649         1.883209
 H        -0.966505         3.040692         2.265129
 H        -0.629627         4.689404         0.311514
 H         0.178545         3.084984         0.475343
 H        -2.031900         1.464131        -1.943703
