19
Iteration:  2614charge 0 multiplicity 1
 O        -0.598065         0.154562         0.436567
 C        -1.779093         0.898158         0.167776
 C        -3.211944         0.252516        -0.175972
 C        -3.361428         1.843609        -0.028829
 C        -2.445176         1.954119         1.161684
 C        -1.634281         3.164539         1.542521
 C        -0.837850         3.537665         0.304882
 O        -1.379044         3.177255        -0.997130
 C        -2.058300         1.904653        -0.960553
 H        -0.570516         0.172191         1.389447
 H        -3.273559        -0.110278        -1.156445
 H        -3.703743        -0.440050         0.517133
 H        -4.379792         2.358482        -0.266135
 H        -2.675957         1.422950         2.162857
 H        -2.365958         3.954035         1.819791
 H        -1.089879         3.133261         2.423484
 H        -0.918546         4.600492         0.235234
 H         0.190229         3.065136         0.418790
 H        -2.235896         1.599417        -2.015776
