19
Iteration:   481charge 0 multiplicity 1
 O        -0.625586         0.214337         0.771837
 C        -1.771514         0.908541         0.238766
 C        -3.111908         0.303337         0.024195
 C        -3.399330         1.833250        -0.097246
 C        -2.418039         1.911857         1.128362
 C        -1.626527         3.150983         1.320805
 C        -0.737195         3.399646         0.194514
 O        -1.439908         3.218529        -1.028054
 C        -2.190675         2.060760        -1.108904
 H        -0.722782        -0.702209         0.411841
 H        -3.217932        -0.345132        -0.894735
 H        -3.648307        -0.123912         0.853157
 H        -4.360349         2.209151        -0.228582
 H        -2.697909         1.387373         2.058376
 H        -2.115718         4.048447         1.687073
 H        -0.961927         2.778095         2.112649
 H        -0.487039         4.606871         0.314774
 H         0.045652         2.482143         0.269354
 H        -2.322845         1.654522        -2.180432
