19
Iteration:  4265charge 0 multiplicity 1
 O        -0.521256         0.142005         0.372645
 C        -1.781541         0.718795         0.127886
 C        -3.213256         0.287637        -0.169070
 C        -3.364645         1.837610        -0.104349
 C        -2.464860         1.863832         1.186606
 C        -1.804120         3.302433         1.474727
 C        -0.766438         3.530699         0.409524
 O        -1.410498         3.227813        -0.936233
 C        -1.990624         1.917806        -0.936481
 H        -0.292757         0.225369         1.366092
 H        -3.574629        -0.115533        -1.114787
 H        -3.769770        -0.237479         0.649846
 H        -4.182357         2.565773        -0.205588
 H        -2.787038         1.381520         2.087367
 H        -2.670244         4.016888         1.547705
 H        -1.318111         3.286034         2.451270
 H        -0.527489         4.591469         0.277596
 H         0.074352         2.929159         0.802096
 H        -2.011397         1.658509        -2.015132
