19
Iteration:  4844
 O        -0.525819         0.042782         0.290188
 C        -1.651501         0.878899         0.126499
 C        -3.149340         0.330998        -0.232770
 C        -3.309611         1.850671        -0.273338
 C        -2.622455         1.822824         1.135666
 C        -1.921870         3.100922         1.639499
 C        -0.906258         3.511034         0.553872
 O        -1.360206         3.325787        -0.762528
 C        -1.889891         2.040672        -0.987469
 H         0.252773         0.478443         0.612356
 H        -3.120894        -0.163462        -1.231065
 H        -3.828070        -0.303210         0.359053
 H        -4.287999         2.189769        -0.667082
 H        -3.245193         1.468574         1.965305
 H        -2.715486         3.851190         1.826749
 H        -1.628371         2.759135         2.655340
 H        -0.581326         4.580896         0.474219
 H         0.039838         2.950628         0.719409
 H        -1.890760         1.589564        -1.995833
