19
Iteration:  4825charge 0 multiplicity 1
 O        -0.584672         0.193575         0.208268
 C        -1.800252         0.817325         0.172052
 C        -3.101249         0.283470        -0.349610
 C        -3.311189         1.823180        -0.240717
 C        -2.555957         1.792838         1.087647
 C        -1.911264         3.161022         1.567497
 C        -0.863418         3.525518         0.624728
 O        -1.339843         3.240749        -0.728455
 C        -1.929678         1.984503        -0.865125
 H        -0.140556         0.429609         0.977890
 H        -3.090897        -0.350754        -1.231242
 H        -3.566567        -0.259285         0.482221
 H        -4.108070         2.521539        -0.560878
 H        -3.054326         1.273779         1.987131
 H        -2.676148         3.970515         1.634492
 H        -1.487493         3.126579         2.603815
 H        -0.587690         4.620298         0.518831
 H         0.254177         3.103253         0.570034
 H        -1.673830         1.687747        -1.915625
