19
Iteration:  1074
 O        -0.676099         0.107963         0.425717
 C        -1.745908         0.907581         0.252604
 C        -3.260172         0.258001        -0.085771
 C        -3.351936         1.782109        -0.094241
 C        -2.490070         1.973214         1.235307
 C        -1.605125         3.218984         1.466816
 C        -0.785594         3.565652         0.194369
 O        -1.362062         3.136289        -1.007728
 C        -2.089560         1.943823        -0.911929
 H        -0.210839         0.423488         1.251377
 H        -3.321183        -0.086631        -1.106377
 H        -3.560106        -0.551889         0.613253
 H        -4.369639         2.329728        -0.135675
 H        -3.014871         1.634920         2.169817
 H        -2.203693         4.076985         1.763835
 H        -0.794708         2.926773         2.299460
 H        -0.633365         4.589714         0.110840
 H         0.231029         3.180841         0.273850
 H        -2.173666         1.500312        -1.915478
