19
Iteration:  3397charge 0 multiplicity 1
 O        -0.532366         0.234564         0.375684
 C        -1.744947         0.896915         0.097424
 C        -3.166727         0.323711        -0.128262
 C        -3.376628         1.784086        -0.047458
 C        -2.530307         1.908802         1.321888
 C        -1.823346         3.241286         1.397769
 C        -0.726274         3.409246         0.311936
 O        -1.374641         3.176178        -0.928413
 C        -2.036257         1.992883        -0.907592
 H        -0.686364        -0.599247         0.896941
 H        -3.233612        -0.141786        -1.160646
 H        -3.614208        -0.435717         0.643983
 H        -4.427287         2.288058        -0.169767
 H        -2.945053         1.292612         2.149141
 H        -2.574837         4.024586         1.247358
 H        -1.267135         3.409838         2.276337
 H        -0.251490         4.390361         0.470070
 H        -0.022121         2.646953         0.525828
 H        -2.203682         1.607274        -1.882709
