19
Iteration:  3411
 O        -0.522505         0.229826         0.392357
 C        -1.766618         0.876045         0.204803
 C        -3.168899         0.280965        -0.160372
 C        -3.361749         1.888649        -0.008801
 C        -2.407224         1.837788         1.104829
 C        -1.799788         3.220302         1.423197
 C        -0.784269         3.412343         0.381898
 O        -1.373156         3.187488        -0.935284
 C        -2.122492         1.950003        -0.935045
 H        -0.647137        -0.240612         1.271197
 H        -3.453969        -0.120229        -1.183082
 H        -3.631900        -0.300365         0.686130
 H        -4.229923         2.554430        -0.199099
 H        -2.781473         1.502191         2.074770
 H        -2.561881         3.970231         1.364515
 H        -1.539350         3.279149         2.524548
 H        -0.440472         4.405215         0.220052
 H         0.156737         2.831891         0.491208
 H        -2.198463         1.579110        -1.989880
