19
Iteration:  2305
 O        -0.521133         0.361062         0.335186
 C        -1.765084         0.905753         0.192496
 C        -3.176956         0.266977        -0.021858
 C        -3.399330         1.821616        -0.086385
 C        -2.565153         1.972881         1.172929
 C        -1.722774         3.233600         1.427998
 C        -0.736172         3.410767         0.268869
 O        -1.371325         3.096036        -0.889162
 C        -2.089366         1.869374        -0.927703
 H        -0.521892        -0.497592         0.773658
 H        -3.305887        -0.212824        -0.963213
 H        -3.762606        -0.093537         0.784803
 H        -4.419713         2.239027        -0.160233
 H        -3.026731         1.447350         2.011985
 H        -2.283753         4.115785         1.852555
 H        -1.196175         2.794841         2.265976
 H        -0.301656         4.401706         0.176856
 H         0.074095         2.707738         0.538524
 H        -2.112484         1.749778        -2.033891
