19
Iteration:  3840
 O        -0.725379        -0.138274         0.368368
 C        -1.779966         0.889615         0.266834
 C        -3.153818         0.291572        -0.082043
 C        -3.323868         1.805607        -0.136516
 C        -2.389653         1.968363         1.195423
 C        -1.700011         3.261064         1.425198
 C        -0.951665         3.748630         0.312878
 O        -1.399997         3.171806        -0.893842
 C        -1.909105         1.883042        -0.937112
 H         0.097591         0.264856         0.741251
 H        -3.176012        -0.182151        -1.085293
 H        -3.672077        -0.321632         0.652626
 H        -4.285087         2.339928        -0.379111
 H        -3.068609         1.626081         1.954702
 H        -2.434162         4.086282         1.733730
 H        -0.903316         3.354119         2.223802
 H        -0.872500         4.847684         0.189002
 H         0.086555         3.406077         0.513464
 H        -1.872266         1.582115        -1.967833
