19
Iteration:   627
 O        -0.745464         0.038465         0.450912
 C        -1.762551         0.865583         0.238536
 C        -3.204560         0.344929         0.052871
 C        -3.315542         1.873725        -0.014279
 C        -2.399792         1.965874         1.227418
 C        -1.722611         3.258886         1.389519
 C        -0.903498         3.634509         0.182971
 O        -1.197732         2.981601        -1.068030
 C        -2.080942         1.914895        -0.939461
 H         0.073972         0.542042         0.328294
 H        -3.415238        -0.391335        -0.713044
 H        -3.687583         0.056787         1.016789
 H        -4.293139         2.368732        -0.351344
 H        -2.881673         1.617759         2.120631
 H        -2.483616         3.926104         1.613455
 H        -1.130871         3.213988         2.307203
 H        -1.038001         4.684291         0.048825
 H         0.220265         3.554843         0.438349
 H        -2.194098         1.518700        -1.885264
