19
Iteration:  4189
 O        -0.590938         0.247441         0.574584
 C        -1.773765         0.851520         0.168674
 C        -3.228554         0.362851        -0.239793
 C        -3.360876         1.844293        -0.082518
 C        -2.366493         1.813164         1.116629
 C        -1.744883         3.191316         1.471596
 C        -0.752030         3.523817         0.349717
 O        -1.390775         3.111940        -0.944975
 C        -2.118750         1.961401        -0.894405
 H        -0.005399         0.058804        -0.143370
 H        -3.238824        -0.192754        -1.201078
 H        -3.792811        -0.059818         0.675751
 H        -4.405083         2.122197        -0.267439
 H        -2.811962         1.171152         1.922680
 H        -2.652324         3.793702         1.439859
 H        -1.410953         3.320543         2.474850
 H        -0.527254         4.598045         0.399624
 H         0.126300         3.000777         0.575189
 H        -2.026341         1.587649        -1.917257
