19
Iteration:  4014
 O        -0.500464         0.251376         0.491342
 C        -1.771489         0.940263         0.159003
 C        -3.173825         0.294222        -0.173281
 C        -3.438472         1.828296        -0.117415
 C        -2.497634         1.899442         1.190258
 C        -1.707862         3.231964         1.580064
 C        -0.826202         3.425780         0.348297
 O        -1.366427         3.179701        -1.022627
 C        -2.074411         1.946152        -0.932869
 H        -0.645312        -0.754897         0.390052
 H        -3.277926        -0.081461        -1.194039
 H        -3.452170        -0.324925         0.678762
 H        -4.468034         2.194652        -0.374601
 H        -3.005189         1.392583         2.071617
 H        -2.529514         3.965332         1.769404
 H        -1.127738         3.068634         2.475906
 H        -0.387921         4.457190         0.202131
 H         0.083271         2.648230         0.441489
 H        -2.034307         1.485294        -1.904094
