19
Iteration:  4163
 O        -0.592999         0.142802         0.412008
 C        -1.814859         0.885577         0.201130
 C        -3.192861         0.229669        -0.115716
 C        -3.399320         1.867065        -0.072602
 C        -2.560753         1.928586         1.195583
 C        -1.790501         3.204616         1.432762
 C        -0.834889         3.470255         0.346981
 O        -1.289054         3.195895        -0.985132
 C        -2.011316         1.941163        -0.909282
 H         0.132883         0.753088         0.220836
 H        -3.034909        -0.318342        -1.063902
 H        -3.379915        -0.369766         0.768680
 H        -4.311971         2.441030        -0.327303
 H        -2.967560         1.384764         2.006573
 H        -2.384445         4.118341         1.739475
 H        -1.135959         3.001321         2.368840
 H        -0.528061         4.510530         0.630526
 H         0.212118         2.934451         0.559766
 H        -1.840730         1.528577        -1.978247
