19
Iteration:  1369
 O        -0.572815         0.124905         0.434500
 C        -1.784833         0.833749         0.234294
 C        -3.253748         0.327093        -0.063836
 C        -3.303398         1.883699        -0.102037
 C        -2.384106         1.946035         1.214781
 C        -1.714978         3.231065         1.407975
 C        -0.796796         3.434302         0.239588
 O        -1.480112         3.262893        -1.023292
 C        -2.073130         1.847647        -0.902236
 H        -0.597416        -0.009240         1.461766
 H        -3.174644        -0.137797        -1.085037
 H        -3.783583        -0.226797         0.735873
 H        -4.199188         2.527915        -0.238022
 H        -2.652991         1.408571         2.118040
 H        -2.303433         4.087058         1.524024
 H        -1.049889         3.288967         2.422313
 H        -0.385142         4.383537         0.167966
 H         0.080488         2.760363         0.506307
 H        -1.957908         1.400164        -1.839583
