19
Iteration:  3534charge 0 multiplicity 1
 O        -0.643535         0.059700         0.312553
 C        -1.716552         0.875352         0.189221
 C        -3.093200         0.320595        -0.139616
 C        -3.339780         1.807040        -0.115132
 C        -2.498963         1.932922         1.226580
 C        -1.875063         3.254940         1.541904
 C        -0.814049         3.618468         0.362795
 O        -1.337115         3.167410        -0.954971
 C        -2.021179         1.917844        -0.942842
 H        -0.613761        -0.466213         1.084973
 H        -3.381188        -0.113380        -1.165220
 H        -3.458471        -0.389019         0.596177
 H        -4.207680         2.361089        -0.190612
 H        -2.878960         1.411889         2.103382
 H        -2.484408         4.091366         1.869718
 H        -1.197402         3.116991         2.467534
 H        -0.565625         4.707313         0.341336
 H         0.145531         3.108036         0.435282
 H        -1.959474         1.541216        -2.042342
