19
Iteration:  4396charge 0 multiplicity 1
 O        -0.575863         0.284180         0.464413
 C        -1.757059         0.855642         0.139039
 C        -3.203546         0.224195        -0.321697
 C        -3.297879         1.841254        -0.035995
 C        -2.497819         1.766528         1.233696
 C        -1.798204         3.157953         1.376319
 C        -0.772216         3.569407         0.411448
 O        -1.322544         3.237651        -0.890547
 C        -2.062122         1.974854        -0.870905
 H        -0.873991        -0.700996         0.622750
 H        -3.216183        -0.184016        -1.307155
 H        -3.606583        -0.395483         0.468410
 H        -4.268690         2.387219        -0.057561
 H        -2.858882         1.194069         2.010493
 H        -2.607655         3.932749         1.452535
 H        -1.475791         3.126413         2.407005
 H        -0.676206         4.635443         0.240183
 H         0.218303         3.049636         0.437458
 H        -2.183041         1.665683        -1.931019
