19
Iteration:  4703
 O        -0.564079         0.128395         0.434231
 C        -1.736529         0.869522         0.126296
 C        -3.106270         0.329919        -0.383600
 C        -3.348015         1.803128        -0.146121
 C        -2.511200         1.692990         1.160002
 C        -1.880186         3.090443         1.596141
 C        -0.854790         3.582546         0.473763
 O        -1.311015         3.315055        -0.894843
 C        -2.022094         2.049228        -0.938950
 H        -0.475660         0.132771         1.458777
 H        -3.269059         0.025416        -1.413289
 H        -3.586447        -0.367386         0.271869
 H        -4.214673         2.433751        -0.314209
 H        -3.128082         1.112706         1.923501
 H        -2.567931         3.885688         1.904539
 H        -1.353857         2.833860         2.545770
 H        -0.647525         4.647774         0.292238
 H         0.054174         3.039347         0.749220
 H        -1.892739         1.877982        -1.999245
