19
Iteration:  1258
 O        -0.665953         0.091321         0.517743
 C        -1.770219         0.838256         0.205073
 C        -3.155653         0.306155        -0.054334
 C        -3.316001         1.845284        -0.038603
 C        -2.432679         1.933504         1.197012
 C        -1.674530         3.239201         1.391767
 C        -0.821664         3.515404         0.235869
 O        -1.478563         3.244379        -0.992686
 C        -1.961905         1.932994        -0.948105
 H        -0.990202        -0.785512         0.437701
 H        -3.366335        -0.265052        -0.984609
 H        -3.514943        -0.277102         0.827867
 H        -4.135775         2.439495        -0.394516
 H        -2.786290         1.509135         2.158129
 H        -2.416698         4.028816         1.548216
 H        -1.000368         3.205577         2.342599
 H        -0.573251         4.558051         0.184794
 H         0.185298         3.043443         0.282567
 H        -2.096417         1.575330        -1.961408
