19
Iteration:   820charge 0 multiplicity 1
 O        -0.642615        -0.036942         0.568458
 C        -1.769838         0.808358         0.262145
 C        -3.211244         0.330248        -0.055430
 C        -3.311123         1.885849        -0.098259
 C        -2.419792         1.928646         1.241698
 C        -1.687817         3.302808         1.479387
 C        -0.818534         3.585133         0.232107
 O        -1.388922         3.164779        -1.037369
 C        -2.080733         1.951014        -1.013913
 H        -0.070664        -0.264985        -0.240618
 H        -3.474080        -0.382457        -0.860875
 H        -3.750274        -0.136228         0.805086
 H        -4.174670         2.579100        -0.192664
 H        -2.735410         1.494443         2.270798
 H        -2.462130         4.145301         1.442257
 H        -1.067567         3.337772         2.341576
 H        -0.836186         4.701384        -0.041106
 H         0.185661         3.123966         0.246106
 H        -2.119803         1.573498        -2.128659
