19
Iteration:  1563charge 0 multiplicity 1
 O        -0.629681         0.223630         0.475862
 C        -1.831956         0.940044         0.193067
 C        -3.203350         0.222034         0.018042
 C        -3.420035         1.803606        -0.129598
 C        -2.434154         1.852196         1.189038
 C        -1.629360         3.094236         1.502511
 C        -0.759546         3.545402         0.225884
 O        -1.263605         3.210036        -1.034366
 C        -2.151034         1.983761        -1.042655
 H        -0.665123         0.017621         1.482436
 H        -3.315267        -0.340995        -0.886861
 H        -3.683459        -0.310516         0.815240
 H        -4.283018         2.476401        -0.109867
 H        -2.974106         1.483645         2.085195
 H        -2.357001         3.980697         1.803403
 H        -1.192832         2.841546         2.389205
 H        -0.743047         4.639837         0.195211
 H         0.294993         3.269449         0.416615
 H        -2.227460         1.439473        -2.036876
