19
Iteration:  3639charge 0 multiplicity 1
 O        -0.547450         0.180996         0.419151
 C        -1.741873         0.836872         0.264818
 C        -3.233518         0.282072        -0.129723
 C        -3.324287         1.874772        -0.184888
 C        -2.468587         1.899466         1.121066
 C        -1.747108         3.156646         1.553056
 C        -0.757509         3.645938         0.357541
 O        -1.430755         3.193136        -0.948691
 C        -2.070599         1.873150        -0.958703
 H        -0.768638        -0.689564         0.675316
 H        -3.277357        -0.242606        -1.036173
 H        -3.776265        -0.114488         0.721036
 H        -4.255583         2.363065        -0.489056
 H        -3.077939         1.445476         1.929844
 H        -2.483577         3.933692         1.944398
 H        -0.997630         3.000302         2.294264
 H        -0.646973         4.704468         0.299646
 H         0.244203         3.105853         0.403225
 H        -1.782843         1.415009        -1.845458
