19
Iteration:   394charge 0 multiplicity 1
 O        -0.722225        -0.002766         0.348483
 C        -1.823604         0.906058         0.237461
 C        -3.129796         0.290508         0.059866
 C        -3.421274         1.827411         0.037819
 C        -2.409050         1.915827         1.159610
 C        -1.815794         3.423106         1.335682
 C        -0.745004         3.589754         0.248131
 O        -1.226247         3.034014        -1.024804
 C        -2.055328         1.935378        -0.891074
 H         0.061787         0.433775         0.839926
 H        -3.407021        -0.434187        -0.772300
 H        -3.510638        -0.169858         0.954237
 H        -4.322309         2.325550         0.000810
 H        -2.763593         1.557840         2.141366
 H        -2.670424         4.052614         1.025623
 H        -1.472075         3.660099         2.387789
 H        -0.448057         4.721918        -0.008128
 H         0.011856         2.834094         0.632781
 H        -2.102418         1.579367        -1.933305
