19
Iteration:  2418charge 0 multiplicity 1
 O        -0.546189         0.167298         0.455568
 C        -1.774294         0.857169         0.260949
 C        -3.234937         0.283997        -0.153254
 C        -3.363083         1.837827        -0.112696
 C        -2.411493         1.891050         1.173147
 C        -1.687789         3.158170         1.521089
 C        -0.839731         3.591141         0.266648
 O        -1.396457         3.169205        -1.010624
 C        -2.066164         1.978039        -0.947356
 H        -0.583303        -0.599369         0.979632
 H        -3.319352        -0.205461        -1.144205
 H        -3.758976        -0.185175         0.771346
 H        -4.385894         2.373232        -0.035359
 H        -2.878793         1.483795         2.064610
 H        -2.317383         4.013405         1.869323
 H        -0.932365         2.945598         2.400948
 H        -0.778796         4.683261         0.117715
 H         0.184625         3.180338         0.338285
 H        -2.211566         1.489562        -1.885800
