19
Iteration:  2450
 O        -0.559289         0.344428         0.447424
 C        -1.818788         0.918919         0.263675
 C        -3.172252         0.297765        -0.180324
 C        -3.410325         1.788551        -0.054160
 C        -2.493158         1.889553         1.179036
 C        -1.684348         3.136292         1.500701
 C        -0.710731         3.453223         0.269115
 O        -1.394187         3.141761        -1.021661
 C        -2.081828         1.955342        -0.914403
 H        -0.636370        -0.650555         0.662368
 H        -3.310581        -0.210689        -1.163149
 H        -3.639853        -0.236675         0.737850
 H        -4.457107         2.367215         0.081181
 H        -2.836783         1.432331         2.112140
 H        -2.416949         3.982643         1.802139
 H        -1.056205         2.924265         2.465453
 H        -0.699474         4.515711         0.056754
 H         0.333858         3.010400         0.324152
 H        -2.162631         1.548266        -1.954655
