19
Iteration:  3282
 O        -0.679090         0.027292         0.444548
 C        -1.799488         0.855392         0.187812
 C        -3.167620         0.263069        -0.049145
 C        -3.326757         1.801542        -0.149253
 C        -2.492819         1.978560         1.182485
 C        -1.665353         3.167104         1.505294
 C        -0.844721         3.631243         0.253996
 O        -1.392350         3.204241        -0.943629
 C        -2.047571         1.953587        -0.922355
 H         0.080360         0.645982         0.261217
 H        -3.220118        -0.247921        -0.996080
 H        -3.552453        -0.219429         0.778469
 H        -4.369995         2.135283        -0.217623
 H        -2.714887         1.460797         2.160037
 H        -2.244086         3.982298         1.984204
 H        -0.806199         2.752189         2.144812
 H        -0.785845         4.715955         0.181430
 H         0.300248         3.331609         0.324455
 H        -2.019577         1.655854        -2.036601
