19
Iteration:  2802charge 0 multiplicity 1
 O        -0.532476         0.215070         0.530955
 C        -1.648708         0.867042         0.203875
 C        -3.290156         0.285131        -0.112939
 C        -3.372349         1.817277        -0.107144
 C        -2.394631         1.868509         1.176152
 C        -1.731852         3.212266         1.520087
 C        -0.830572         3.516269         0.274553
 O        -1.402696         3.209243        -0.946738
 C        -2.093317         1.964811        -1.016832
 H        -0.753888        -0.779411         0.305936
 H        -3.431686         0.043728        -1.175543
 H        -3.819608        -0.417521         0.460759
 H        -4.332439         2.227146        -0.292204
 H        -2.913221         1.499098         2.155623
 H        -2.462258         4.016176         1.875557
 H        -1.034879         3.158661         2.341605
 H        -0.298521         4.509712         0.166393
 H        -0.055563         2.741805         0.314234
 H        -2.187888         1.573450        -2.043242
