19
Iteration:  2979charge 0 multiplicity 1
 O        -0.624474         0.138782         0.369667
 C        -1.823884         0.892650         0.198700
 C        -3.140637         0.247244        -0.096325
 C        -3.400487         1.846767        -0.089445
 C        -2.445536         1.975796         1.113524
 C        -1.633287         3.175682         1.548096
 C        -0.818950         3.567062         0.272606
 O        -1.395009         3.134483        -0.939774
 C        -2.082056         1.899308        -0.919694
 H        -0.180152         0.274647         1.283686
 H        -2.925446        -0.361943        -0.987449
 H        -3.603277        -0.401622         0.608616
 H        -4.347866         2.478319        -0.253078
 H        -2.974077         1.550109         2.065126
 H        -2.329213         4.067618         1.835044
 H        -0.855004         2.879076         2.298992
 H        -0.842960         4.716320         0.102965
 H         0.266076         3.269838         0.468059
 H        -2.359292         1.625830        -1.932180
