19
Iteration:  3790
 O        -0.586890         0.155416         0.499536
 C        -1.807347         0.852621         0.211859
 C        -3.125839         0.333942        -0.169261
 C        -3.386668         1.857462        -0.036618
 C        -2.426401         1.868315         1.178961
 C        -1.861931         3.214454         1.433625
 C        -0.758545         3.452473         0.280485
 O        -1.328439         3.173504        -0.985716
 C        -2.115479         1.955624        -0.863823
 H         0.021953         0.753269         0.132226
 H        -3.217932        -0.129725        -1.131264
 H        -3.703512        -0.245965         0.620232
 H        -4.276828         2.459916        -0.256088
 H        -2.723770         1.260012         2.043445
 H        -2.479645         4.025843         1.434757
 H        -1.390050         3.195119         2.386434
 H        -0.271138         4.396662         0.148875
 H         0.025489         2.811993         0.597227
 H        -2.152123         1.517211        -1.910816
