19
Iteration:  4970
 O        -0.442660         0.199863         0.303285
 C        -1.789852         0.841868         0.130795
 C        -3.122344         0.285845        -0.464741
 C        -3.352940         1.769996        -0.199806
 C        -2.569450         1.738420         1.188301
 C        -1.953764         3.159614         1.551274
 C        -0.796598         3.499821         0.616131
 O        -1.328802         3.298930        -0.750047
 C        -1.992230         2.089492        -0.924154
 H        -0.573206        -0.271537         1.184536
 H        -3.018136         0.095128        -1.494231
 H        -3.603477        -0.405595         0.170221
 H        -4.243783         2.415466        -0.390810
 H        -3.134393         1.381029         2.063960
 H        -2.817146         3.807210         1.400177
 H        -1.622764         3.206956         2.556762
 H        -0.493388         4.519292         0.795643
 H         0.073972         2.763809         0.635962
 H        -1.887272         1.621583        -1.845298
