19
Iteration:  1755
 O        -0.529726         0.389097         0.536039
 C        -1.777597         0.861770         0.244033
 C        -3.279625         0.302215        -0.102081
 C        -3.362387         1.805060        -0.106909
 C        -2.487107         1.922532         1.215549
 C        -1.630668         3.142025         1.422519
 C        -0.751333         3.393114         0.249445
 O        -1.391317         3.150634        -1.021787
 C        -2.147386         1.916525        -0.868069
 H        -0.277716        -0.089845        -0.279595
 H        -3.400764        -0.056872        -1.181035
 H        -3.835791        -0.295322         0.698849
 H        -4.196175         2.325522        -0.412301
 H        -2.980322         1.634774         2.180295
 H        -2.280297         4.001192         1.663781
 H        -1.113894         2.872122         2.382644
 H        -0.419596         4.456920         0.135163
 H         0.093744         2.710599         0.415520
 H        -2.215464         1.422694        -1.774621
