19
Iteration:  4183charge 0 multiplicity 1
 O        -0.578278         0.217561         0.565612
 C        -1.758341         0.838709         0.173376
 C        -3.249013         0.296249        -0.199060
 C        -3.358925         1.801938        -0.081277
 C        -2.444158         1.818713         1.128451
 C        -1.768832         3.164958         1.469761
 C        -0.735969         3.539397         0.341646
 O        -1.355168         3.162992        -0.934991
 C        -2.099544         1.977170        -0.925997
 H         0.149439         0.428854        -0.153910
 H        -3.449962        -0.058523        -1.216929
 H        -3.843012        -0.005149         0.634522
 H        -4.345895         2.238061        -0.256323
 H        -2.910110         1.363567         2.025178
 H        -2.690688         3.795682         1.439670
 H        -1.291869         3.356534         2.475867
 H        -0.377700         4.569698         0.115427
 H         0.298133         3.049372         0.671346
 H        -2.221798         1.651510        -1.994681
