19
Iteration:  2530
 O        -0.568803         0.137774         0.312502
 C        -1.777451         0.859324         0.176357
 C        -3.170456         0.288336        -0.079153
 C        -3.343094         1.867888         0.027068
 C        -2.531653         1.854198         1.283229
 C        -1.786764         3.237067         1.386066
 C        -0.799327         3.577520         0.322590
 O        -1.292925         3.159657        -1.009336
 C        -2.046447         1.949785        -0.902268
 H        -0.735246        -0.616659         0.977375
 H        -3.398462        -0.079243        -1.161687
 H        -3.535990        -0.486377         0.661293
 H        -4.335795         2.238223         0.115273
 H        -3.054879         1.519792         2.163041
 H        -2.646072         3.941258         1.345216
 H        -1.131491         3.431504         2.365357
 H        -0.593491         4.703052         0.129382
 H         0.206550         3.167536         0.573933
 H        -2.115468         1.542693        -1.889311
