19
Iteration:  3818charge 0 multiplicity 1
 O        -0.700488        -0.080784         0.488458
 C        -1.738777         0.887947         0.173187
 C        -3.139618         0.289573        -0.121870
 C        -3.285047         1.797229        -0.063328
 C        -2.411290         1.889385         1.196450
 C        -1.832500         3.231655         1.530377
 C        -0.817977         3.651362         0.260216
 O        -1.353714         3.237656        -1.028996
 C        -2.045552         1.962503        -0.929999
 H         0.135060         0.419549         0.422734
 H        -3.350738        -0.375414        -0.987822
 H        -3.571132        -0.103103         0.792926
 H        -4.143548         2.494290        -0.198266
 H        -2.959278         1.290881         1.951191
 H        -2.515759         4.156084         1.470855
 H        -1.319447         3.253841         2.558195
 H        -0.694841         4.753213         0.121963
 H         0.161947         3.210072         0.605216
 H        -2.225095         1.593410        -1.925954
