19
Iteration:  3046charge 0 multiplicity 1
 O        -0.536984         0.229482         0.291245
 C        -1.719330         0.942260         0.156649
 C        -3.201824         0.232888        -0.114932
 C        -3.429179         1.820208        -0.018211
 C        -2.481442         1.968130         1.231977
 C        -1.758914         3.365221         1.483147
 C        -0.769654         3.409086         0.346693
 O        -1.374103         3.113374        -0.936847
 C        -2.079164         1.888325        -0.909481
 H        -0.701840        -0.403973         0.948421
 H        -3.231736        -0.262280        -1.042198
 H        -3.499843        -0.445998         0.671286
 H        -4.332225         2.301526        -0.268477
 H        -2.757259         1.289803         2.087597
 H        -2.581303         4.169368         1.386678
 H        -1.338908         3.362507         2.525525
 H        -0.199217         4.372281         0.278672
 H         0.070140         2.701420         0.263909
 H        -2.171565         1.651387        -1.931374
