19
Iteration:  3940
 O        -0.593261         0.150436         0.368899
 C        -1.781953         0.832685         0.253961
 C        -3.152626         0.369234        -0.053820
 C        -3.377480         1.869944        -0.182835
 C        -2.576553         1.940100         1.219086
 C        -1.745279         3.158061         1.550842
 C        -0.839857         3.606890         0.323770
 O        -1.300665         3.101225        -0.963815
 C        -2.038879         1.846634        -0.934172
 H         0.006753         0.290125        -0.308737
 H        -3.262341        -0.261520        -0.910355
 H        -3.447718        -0.137893         0.912951
 H        -4.178890         2.570139        -0.534371
 H        -3.113973         1.494828         2.040576
 H        -2.529601         3.931087         1.650212
 H        -1.072686         3.076708         2.462342
 H        -0.765823         4.663178         0.355617
 H         0.082845         3.167639         0.353507
 H        -1.863409         1.419957        -1.918061
