19
Iteration:  1114charge 0 multiplicity 1
 O        -0.586197         0.024880         0.326927
 C        -1.794476         0.829599         0.180109
 C        -3.210918         0.338480         0.047530
 C        -3.366518         1.827950         0.020314
 C        -2.363754         1.967963         1.221832
 C        -1.829710         3.396066         1.344811
 C        -0.834042         3.379442         0.314636
 O        -1.304833         3.163184        -0.939284
 C        -2.064015         1.933637        -1.006803
 H         0.210350         0.487862         0.562445
 H        -3.644820        -0.029724        -0.911506
 H        -3.476120        -0.238617         0.982343
 H        -4.202015         2.519268        -0.124659
 H        -2.874283         1.440049         2.023123
 H        -2.700090         4.088492         1.204504
 H        -1.469965         3.720451         2.397292
 H        -0.397803         4.448791         0.327063
 H        -0.049761         2.545047         0.605042
 H        -2.172504         1.651199        -2.036857
