19
Iteration:  3682
 O        -0.672954        -0.005641         0.527371
 C        -1.765335         0.811046         0.228619
 C        -3.098808         0.320558        -0.163330
 C        -3.351698         1.807303        -0.074837
 C        -2.391741         1.834164         1.203014
 C        -1.763136         3.207404         1.457359
 C        -0.848697         3.728219         0.342299
 O        -1.342795         3.238063        -1.050140
 C        -2.046240         1.992885        -0.888131
 H        -0.451212        -0.590512        -0.205924
 H        -3.119700        -0.067039        -1.139834
 H        -3.684202        -0.295483         0.565744
 H        -4.310224         2.369356        -0.092983
 H        -2.793895         1.412533         2.135252
 H        -2.732645         3.933846         1.516402
 H        -1.305485         3.195248         2.453194
 H        -0.690893         4.752039         0.082857
 H         0.132639         3.166867         0.448733
 H        -2.198430         1.712969        -1.948957
