19
Iteration:  3544charge 0 multiplicity 1
 O        -0.633848         0.075939         0.241012
 C        -1.768533         0.898356         0.199140
 C        -3.090964         0.312559        -0.105267
 C        -3.381471         1.799088        -0.153747
 C        -2.488286         1.936970         1.187993
 C        -1.798942         3.283672         1.470075
 C        -0.838454         3.546323         0.363419
 O        -1.346737         3.179075        -0.861531
 C        -1.981864         1.930201        -0.862853
 H        -0.463583        -0.141679         1.171601
 H        -3.122744        -0.195769        -1.185669
 H        -3.571264        -0.207116         0.741696
 H        -4.329548         2.106976        -0.431079
 H        -2.962661         1.524580         2.084759
 H        -2.559627         4.016028         1.604280
 H        -1.180742         3.108209         2.411058
 H        -0.552252         4.602209         0.328529
 H         0.021445         2.915331         0.603889
 H        -2.003886         1.435831        -1.888673
