19
Iteration:  4128
 O        -0.574088         0.038847         0.295074
 C        -1.774702         0.892750         0.175353
 C        -3.174812         0.244380        -0.089795
 C        -3.387598         1.845927        -0.148369
 C        -2.470199         1.974944         1.157681
 C        -1.796642         3.306786         1.510439
 C        -0.803581         3.499945         0.416660
 O        -1.372597         3.184072        -0.875606
 C        -2.034028         1.902919        -0.956995
 H        -0.076934         0.424946         1.052264
 H        -3.153496        -0.451888        -0.940662
 H        -3.598441        -0.268161         0.768780
 H        -4.286495         2.382667        -0.427650
 H        -2.899782         1.498716         2.046135
 H        -2.557365         4.123565         1.463777
 H        -1.148808         3.432977         2.416089
 H        -0.650233         4.544713         0.182035
 H         0.222091         2.956956         0.635322
 H        -2.004755         1.500442        -1.987837
