19
Iteration:   677charge 0 multiplicity 1
 O        -0.746711        -0.019129         0.585811
 C        -1.750975         0.870423         0.407304
 C        -3.105751         0.280706        -0.069507
 C        -3.391660         1.895068        -0.093200
 C        -2.444339         1.891384         1.222535
 C        -1.572856         3.273189         1.328363
 C        -0.748180         3.533183         0.066191
 O        -1.537684         3.225106        -1.009128
 C        -2.046868         1.944040        -0.927717
 H        -0.065926         0.348263         1.248025
 H        -2.953162        -0.236063        -1.072382
 H        -3.709619        -0.439381         0.495749
 H        -4.169794         2.603624        -0.311774
 H        -2.993884         1.557746         2.170389
 H        -2.353438         4.192684         1.482953
 H        -0.933208         3.231893         2.248290
 H        -0.302589         4.620782        -0.027631
 H         0.042987         2.817272         0.080143
 H        -1.894193         1.474676        -2.039950
