19
Iteration:  3208charge 0 multiplicity 1
 O        -0.632787         0.153638         0.312754
 C        -1.805166         0.885922         0.261765
 C        -3.088911         0.238525        -0.083861
 C        -3.459850         1.786247         0.040741
 C        -2.435935         1.839335         1.237134
 C        -1.775853         3.242904         1.415521
 C        -0.706174         3.455855         0.294600
 O        -1.300709         3.163558        -0.997493
 C        -2.139863         2.070475        -0.923062
 H         0.052386         0.523134         0.966034
 H        -3.345536        -0.202233        -1.143752
 H        -3.720305        -0.216910         0.756722
 H        -4.474039         2.095535        -0.135516
 H        -2.932870         1.497962         2.183968
 H        -2.598794         3.931475         1.148957
 H        -1.357999         3.588170         2.337540
 H        -0.331224         4.547099         0.331200
 H         0.241585         2.903141         0.285492
 H        -2.251984         1.749274        -1.987704
