19
Iteration:  1782charge 0 multiplicity 1
 O        -0.666851         0.123512         0.499592
 C        -1.712604         0.958115         0.176862
 C        -3.259249         0.287636        -0.077976
 C        -3.391214         1.801095        -0.035679
 C        -2.412478         1.888671         1.204012
 C        -1.695147         3.243379         1.424370
 C        -0.824982         3.520773         0.248212
 O        -1.312691         3.113576        -1.017766
 C        -2.108614         1.943323        -0.897820
 H         0.126041         0.409954        -0.006032
 H        -3.240004        -0.222636        -1.042536
 H        -3.597335        -0.249078         0.779537
 H        -4.354733         2.481982        -0.029355
 H        -2.738317         1.408237         2.125484
 H        -2.385388         4.086616         1.567284
 H        -1.148140         3.178860         2.390988
 H        -0.704256         4.639458         0.124286
 H         0.181526         3.100080         0.489084
 H        -2.216201         1.380411        -1.906329
