19
Iteration:   612charge 0 multiplicity 1
 O        -0.624935         0.064365         0.372024
 C        -1.868772         0.886072         0.290767
 C        -3.234305         0.339237        -0.003063
 C        -3.440933         1.924149         0.027931
 C        -2.522391         1.940581         1.271325
 C        -1.732082         3.303463         1.419926
 C        -0.841497         3.714222         0.155561
 O        -1.140799         2.895455        -1.057348
 C        -1.999284         1.803019        -0.844947
 H         0.060082         0.544498        -0.073408
 H        -3.336741         0.008457        -1.048577
 H        -3.668682        -0.350420         0.710475
 H        -4.286343         2.569832         0.031805
 H        -2.848081         1.490189         2.235665
 H        -2.469111         4.159473         1.514808
 H        -1.052199         3.363920         2.288429
 H        -1.102118         4.822175        -0.209635
 H         0.220072         3.546807         0.314080
 H        -2.187545         1.269571        -1.901097
