19
Iteration:  3245charge 0 multiplicity 1
 O        -0.625372         0.078474         0.338060
 C        -1.763514         0.821719         0.198373
 C        -3.219800         0.305203        -0.056063
 C        -3.308495         1.871333        -0.086928
 C        -2.344345         1.876608         1.239249
 C        -1.746762         3.290572         1.495903
 C        -0.853205         3.522762         0.279036
 O        -1.411693         3.186453        -0.967497
 C        -2.036894         1.939842        -0.960296
 H         0.079591         0.467382         0.974468
 H        -3.423936        -0.216420        -0.996992
 H        -3.792083        -0.218433         0.774572
 H        -4.377185         2.246763        -0.262814
 H        -2.770673         1.410960         2.111171
 H        -2.544457         4.043205         1.646605
 H        -1.285695         3.239212         2.510275
 H        -0.610089         4.579244         0.060820
 H         0.093263         2.879455         0.568638
 H        -2.096723         1.518810        -1.930064
