19
Iteration:   831charge 0 multiplicity 1
 O        -0.687320         0.050064         0.591849
 C        -1.770226         0.866407         0.258403
 C        -3.132428         0.309831        -0.083370
 C        -3.356642         1.884812        -0.118568
 C        -2.422740         1.939541         1.202512
 C        -1.615861         3.266007         1.492027
 C        -0.846598         3.531425         0.181775
 O        -1.427862         3.144642        -1.079226
 C        -2.071384         1.950766        -0.888011
 H        -0.366093        -0.221963        -0.257739
 H        -3.163493        -0.171238        -1.072233
 H        -3.670756        -0.137243         0.783194
 H        -4.285400         2.461022        -0.329524
 H        -3.015449         1.454645         2.072795
 H        -2.312917         4.045891         1.909321
 H        -0.871966         3.182886         2.248096
 H        -0.549904         4.630435         0.133943
 H         0.131347         3.040419         0.351503
 H        -2.064191         1.341070        -1.869005
