19
Iteration:  3742charge 0 multiplicity 1
 O        -0.593504         0.289132         0.363577
 C        -1.734787         0.917704         0.231266
 C        -3.197271         0.245743         0.014409
 C        -3.357354         1.821371        -0.202277
 C        -2.590671         1.916548         1.157501
 C        -1.790424         3.155072         1.490721
 C        -0.761798         3.464917         0.399919
 O        -1.308433         3.100780        -0.961242
 C        -2.084176         1.969850        -0.979727
 H         0.247013         0.459005        -0.172966
 H        -3.376280        -0.544560        -0.807799
 H        -3.614881        -0.217345         0.915876
 H        -4.268782         2.454534        -0.229495
 H        -3.157831         1.583180         2.054906
 H        -2.351863         4.077522         1.677703
 H        -1.223215         2.998778         2.454810
 H        -0.220188         4.415828         0.146916
 H         0.079497         2.846052         0.869721
 H        -2.085233         1.523770        -1.987558
