19
Iteration:  1607charge 0 multiplicity 1
 O        -0.581440         0.163539         0.329515
 C        -1.785557         0.825819         0.349856
 C        -3.321393         0.347540        -0.148010
 C        -3.318327         1.862336        -0.093050
 C        -2.448038         1.944665         1.249867
 C        -1.656254         3.185384         1.520385
 C        -0.876387         3.713484         0.284833
 O        -1.320581         3.020032        -1.060572
 C        -2.017295         1.852362        -0.903581
 H        -0.362323        -0.341085         1.202443
 H        -3.194495        -0.184610        -1.077970
 H        -4.094533        -0.126256         0.424156
 H        -4.261310         2.393883        -0.395349
 H        -2.825951         1.454238         2.167146
 H        -2.387175         4.048390         1.914169
 H        -0.937672         3.095971         2.312599
 H        -1.056458         4.785237         0.185720
 H         0.219301         3.653192         0.404297
 H        -2.180764         1.228670        -1.867125
