19
Iteration:  3953charge 0 multiplicity 1
 O        -0.594054         0.112534         0.442038
 C        -1.774160         0.880696         0.186300
 C        -3.190737         0.218425        -0.041167
 C        -3.311696         1.872231        -0.162972
 C        -2.419362         1.946364         1.141966
 C        -1.797692         3.285777         1.505014
 C        -0.874723         3.490445         0.378594
 O        -1.341759         3.157103        -0.940190
 C        -2.019977         1.937536        -0.956098
 H        -0.140978         0.147981        -0.481671
 H        -3.412591        -0.340465        -0.970050
 H        -3.813851        -0.206844         0.803616
 H        -4.264953         2.377452        -0.273900
 H        -3.005016         1.580896         1.969713
 H        -2.498334         4.063367         1.783217
 H        -1.140631         3.153859         2.419241
 H        -0.588014         4.516888         0.199506
 H         0.007224         2.951220         0.635113
 H        -2.103725         1.590120        -2.025242
