19
Iteration:  3338
 O        -0.533144         0.204610         0.474448
 C        -1.757811         0.845199         0.165510
 C        -3.349721         0.266559        -0.058119
 C        -3.357195         1.853084        -0.120360
 C        -2.405294         1.854828         1.183687
 C        -1.776987         3.170943         1.503283
 C        -0.790634         3.571827         0.361008
 O        -1.322747         3.187745        -1.040714
 C        -2.072311         1.935967        -0.916773
 H        -0.128600        -0.041196        -0.334833
 H        -3.510404        -0.250755        -1.000147
 H        -3.707521        -0.288785         0.757138
 H        -4.229311         2.389597        -0.101106
 H        -2.843666         1.433773         2.136108
 H        -2.665534         3.846480         1.646377
 H        -1.239986         3.286216         2.467135
 H        -0.558531         4.663302         0.296817
 H         0.157768         2.951944         0.438995
 H        -2.054671         1.481574        -1.959335
