19
Iteration:  3979charge 0 multiplicity 1
 O        -0.602673         0.157893         0.535544
 C        -1.759237         0.887226         0.138634
 C        -3.111046         0.247269        -0.177304
 C        -3.452477         1.841964        -0.042264
 C        -2.383085         1.838084         1.217971
 C        -1.806686         3.231329         1.368366
 C        -0.731203         3.428244         0.347162
 O        -1.378545         3.256871        -0.938898
 C        -2.068210         2.003373        -0.872369
 H        -0.365663        -0.475579        -0.243334
 H        -3.507892        -0.148024        -1.154088
 H        -3.425910        -0.429215         0.597757
 H        -4.426095         2.349136        -0.122438
 H        -2.968771         1.545048         2.122753
 H        -2.593896         3.937315         1.013078
 H        -1.516400         3.598309         2.324566
 H        -0.454030         4.553451         0.332172
 H         0.272424         2.792854         0.468463
 H        -2.164362         1.642408        -1.932834
