19
Iteration:  1696
 O        -0.534363         0.175857         0.443097
 C        -1.774703         0.908164         0.255145
 C        -3.188692         0.278857        -0.100418
 C        -3.398599         1.867453        -0.038337
 C        -2.492584         1.907681         1.263229
 C        -1.712466         3.265839         1.438899
 C        -0.757655         3.450261         0.248096
 O        -1.394436         3.175106        -1.018319
 C        -2.089484         1.963331        -0.927167
 H        -0.573056        -0.844282         0.421252
 H        -3.227573        -0.141728        -1.100229
 H        -3.619179        -0.380445         0.634270
 H        -4.450479         2.331494        -0.178954
 H        -2.891863         1.528292         2.211881
 H        -2.587491         4.054744         1.499526
 H        -1.225278         3.259983         2.365364
 H        -0.304857         4.340671        -0.021935
 H         0.079530         2.752740         0.405745
 H        -1.964107         1.521579        -2.000364
