19
Iteration:  4146charge 0 multiplicity 1
 O        -0.679712         0.129596         0.291883
 C        -1.733749         0.961385         0.275071
 C        -3.033771         0.345139        -0.046622
 C        -3.352313         1.774988        -0.221775
 C        -2.557970         1.925705         1.217523
 C        -1.797133         3.231072         1.564575
 C        -0.789646         3.509955         0.323843
 O        -1.332099         3.100480        -0.932046
 C        -2.048087         1.931213        -0.945628
 H         0.198272         0.525132         0.590448
 H        -3.235026        -0.206363        -0.976181
 H        -3.699691        -0.222744         0.670649
 H        -4.328266         2.248199        -0.388994
 H        -3.159820         1.524129         2.109626
 H        -2.486388         4.046691         1.702877
 H        -1.411483         2.996569         2.528826
 H        -0.455692         4.562949         0.217877
 H         0.029304         2.838533         0.431576
 H        -2.107547         1.577556        -1.947504
