19
Iteration:  4859charge 0 multiplicity 1
 O        -0.601412         0.008560         0.400336
 C        -1.733167         0.854396         0.140696
 C        -3.009474         0.286370        -0.344306
 C        -3.301600         1.817366        -0.248724
 C        -2.541120         1.841395         1.099230
 C        -1.952512         3.108433         1.628878
 C        -0.921815         3.537988         0.571230
 O        -1.327050         3.341395        -0.834709
 C        -2.002651         2.086416        -0.945760
 H         0.099189         0.614714         0.188135
 H        -3.154768        -0.219857        -1.285270
 H        -3.465883        -0.198969         0.510848
 H        -4.183802         2.441083        -0.318172
 H        -3.005120         1.117512         1.808696
 H        -2.643601         3.888709         1.984854
 H        -1.232435         2.926199         2.408102
 H        -0.557096         4.535840         0.818112
 H        -0.086896         2.714112         0.757728
 H        -1.965470         1.921195        -2.033790
