19
Iteration:  3875
 O        -0.663492         0.008360         0.438647
 C        -1.776126         0.870343         0.206809
 C        -3.218736         0.342124        -0.088150
 C        -3.320435         1.867219        -0.068873
 C        -2.429775         1.867943         1.203742
 C        -1.696782         3.139012         1.470206
 C        -1.016462         3.702338         0.270829
 O        -1.216259         3.140829        -1.017907
 C        -2.020184         1.930058        -0.968144
 H        -0.104529         0.673488         0.939769
 H        -3.292210        -0.172294        -1.041457
 H        -3.622681        -0.240034         0.808183
 H        -4.251445         2.511245        -0.139311
 H        -2.959753         1.496225         2.060699
 H        -2.440007         3.849871         1.836579
 H        -0.911817         2.952842         2.275154
 H        -1.105854         4.753011         0.173871
 H         0.007579         3.460169         0.672511
 H        -2.095813         1.418443        -1.938503
