19
Iteration:  4806
 O        -0.509439         0.205616         0.292096
 C        -1.766840         0.930016         0.106822
 C        -3.120665         0.240719        -0.377064
 C        -3.397622         1.761348        -0.189227
 C        -2.543597         1.807504         1.202167
 C        -1.960347         3.117336         1.570064
 C        -0.812261         3.548910         0.565747
 O        -1.190588         3.241116        -0.787671
 C        -2.051227         2.017644        -0.943562
 H        -0.522653        -0.004528         1.213026
 H        -3.200527         0.084625        -1.463032
 H        -3.721003        -0.461782         0.224481
 H        -4.390352         2.207090        -0.182927
 H        -3.016166         1.158019         1.945087
 H        -2.794402         3.828993         1.620389
 H        -1.445327         3.195445         2.533372
 H        -0.497905         4.582547         0.682230
 H         0.054844         2.983382         0.860158
 H        -2.021756         1.928090        -2.023676
