19
Iteration:  3328charge 0 multiplicity 1
 O        -0.576381         0.189214         0.508808
 C        -1.739771         0.851351         0.232389
 C        -3.283703         0.323783        -0.113581
 C        -3.379332         1.839426        -0.000723
 C        -2.426790         1.754652         1.202761
 C        -1.722299         3.170384         1.411467
 C        -0.855148         3.575737         0.324015
 O        -1.318516         3.200206        -1.011362
 C        -2.064814         1.925629        -0.978464
 H         0.022791         0.151764        -0.190147
 H        -3.344844        -0.103071        -1.130214
 H        -3.879726        -0.163986         0.672169
 H        -4.106514         2.531050        -0.224192
 H        -2.880063         1.407005         2.192518
 H        -2.548317         3.914616         1.569100
 H        -1.093693         2.963992         2.255666
 H        -0.666204         4.679082         0.147393
 H         0.148135         3.122361         0.599532
 H        -2.266809         1.700462        -2.074917
