19
Iteration:  3263
 O        -0.608304         0.012911         0.354309
 C        -1.749109         0.893253         0.222638
 C        -3.197548         0.324818         0.022263
 C        -3.377533         1.843440        -0.128159
 C        -2.462245         1.890846         1.138270
 C        -1.700247         3.128851         1.481286
 C        -0.789680         3.638333         0.335102
 O        -1.446851         3.224128        -0.964070
 C        -2.021226         1.855659        -0.957019
 H         0.094542         0.673566         0.736183
 H        -3.466934        -0.398268        -0.828148
 H        -3.667090        -0.000111         1.007226
 H        -3.940868         2.652758        -0.389212
 H        -3.078258         1.460309         1.976870
 H        -2.447239         3.933516         1.626121
 H        -1.050690         3.190040         2.313569
 H        -0.724750         4.751149         0.458550
 H         0.130683         3.223200         0.189731
 H        -1.997406         1.536313        -2.007403
