19
Iteration:  1405charge 0 multiplicity 1
 O        -0.758443        -0.067170         0.571726
 C        -1.825747         0.944371         0.189053
 C        -3.075237         0.221553        -0.081549
 C        -3.409373         1.875745        -0.073994
 C        -2.362051         1.943911         1.191310
 C        -1.622601         3.195208         1.415727
 C        -0.799482         3.653704         0.216149
 O        -1.366010         3.223919        -1.018760
 C        -2.140078         1.936116        -0.953264
 H         0.039364         0.511503         0.839340
 H        -3.121637        -0.315052        -1.030350
 H        -3.632825        -0.285264         0.695091
 H        -4.505144         2.143467        -0.189271
 H        -2.723245         1.444693         2.078563
 H        -2.262166         4.073170         1.778853
 H        -0.877966         2.824215         2.279907
 H        -0.850258         4.801799         0.334669
 H         0.274658         3.288076         0.159648
 H        -2.139745         1.481821        -1.932290
