19
Iteration:    15charge 0 multiplicity 1
 O        -0.694662        -0.019127         0.468498
 C        -1.866785         0.769857         0.265320
 C        -3.308931         0.377350         0.043309
 C        -3.284889         2.012039        -0.011031
 C        -2.322272         1.955727         1.224244
 C        -1.437065         3.259422         1.330666
 C        -1.382089         4.058690         0.069246
 O        -0.973486         2.715238        -0.951671
 C        -2.063120         1.790865        -0.924723
 H        -0.493545         0.012809         1.451971
 H        -3.486978        -0.084732        -0.944517
 H        -3.802579        -0.113893         0.810447
 H        -4.152509         2.856219        -0.319614
 H        -2.686691         1.639537         2.124388
 H        -1.816210         3.822381         2.194571
 H        -0.423719         3.019403         1.553971
 H        -2.172360         4.578955        -0.329566
 H        -0.512334         4.784448        -0.029549
 H        -2.364306         1.363121        -2.039635
