19
Iteration:   847
 O        -0.685363         0.244204         0.620927
 C        -1.778845         0.910589         0.292676
 C        -3.180739         0.309480        -0.089842
 C        -3.392455         1.796224        -0.051042
 C        -2.538209         1.994789         1.216342
 C        -1.597981         3.093529         1.392253
 C        -0.747351         3.510775         0.187692
 O        -1.448524         3.182297        -1.028998
 C        -2.012347         1.894158        -0.986676
 H        -0.527792        -0.409009        -0.132033
 H        -3.175016        -0.062832        -1.117794
 H        -3.575184        -0.375708         0.667906
 H        -4.276053         2.391962        -0.299634
 H        -2.775939         1.591647         2.164034
 H        -2.093182         3.969374         1.828400
 H        -0.880143         2.667443         2.243551
 H        -0.429231         4.519478         0.081451
 H         0.344932         3.066380         0.256555
 H        -2.102434         1.438702        -1.987581
