19
Iteration:  2484
 O        -0.549415         0.285105         0.343076
 C        -1.757879         0.890844         0.138911
 C        -3.127223         0.293288        -0.007665
 C        -3.348421         1.807287        -0.072960
 C        -2.500136         1.975043         1.138621
 C        -1.790154         3.276112         1.479316
 C        -0.716250         3.348602         0.323731
 O        -1.451388         3.157820        -0.907971
 C        -2.044152         1.917594        -0.961655
 H        -0.780793        -0.715856         0.427669
 H        -3.477422        -0.454235        -0.764709
 H        -3.497596        -0.106536         1.024281
 H        -4.317224         2.488980        -0.241995
 H        -2.889940         1.435013         2.005882
 H        -2.581005         4.094363         1.461320
 H        -1.404871         3.115407         2.591246
 H        -0.270701         4.387786         0.300455
 H         0.174000         2.672819         0.491824
 H        -2.124556         1.628234        -2.018056
