19
Iteration:  1704
 O        -0.515536         0.243281         0.468061
 C        -1.832786         0.900039         0.241297
 C        -3.138332         0.247538        -0.079130
 C        -3.408104         1.828593        -0.096231
 C        -2.451414         1.901838         1.214676
 C        -1.706371         3.287904         1.423874
 C        -0.757342         3.410793         0.263090
 O        -1.384610         3.152551        -0.960298
 C        -2.135397         1.982626        -0.974730
 H        -0.947090        -0.679144         0.403274
 H        -3.169532        -0.386565        -0.960919
 H        -3.784659        -0.202096         0.678090
 H        -4.326555         2.473783        -0.104592
 H        -2.853451         1.469047         2.133402
 H        -2.315082         4.140547         1.607098
 H        -1.060536         3.122697         2.350001
 H        -0.261412         4.456590         0.148025
 H         0.018129         2.651082         0.447590
 H        -2.333560         1.645036        -2.035761
