19
Iteration:   491
 O        -0.674194         0.174149         0.802467
 C        -1.682442         0.891095         0.252737
 C        -3.142143         0.279945        -0.038469
 C        -3.330647         1.808592        -0.114144
 C        -2.433991         1.949998         1.085540
 C        -1.589323         3.128237         1.392073
 C        -0.772541         3.379411         0.175368
 O        -1.524001         3.290628        -1.066144
 C        -2.176672         2.048922        -1.012727
 H        -0.666752        -0.754914         0.401945
 H        -3.287714        -0.403125        -0.904809
 H        -3.579175        -0.112778         0.852496
 H        -4.234800         2.291366        -0.245141
 H        -2.839193         1.590891         2.056739
 H        -2.197117         4.030750         1.536786
 H        -0.897556         3.091663         2.215178
 H        -0.066448         4.405527         0.162431
 H         0.183166         2.672492         0.080048
 H        -2.315613         1.656156        -2.109033
