19
Iteration:    46charge 0 multiplicity 1
 O        -0.822395        -0.141759         0.439374
 C        -1.811889         0.847866         0.282517
 C        -3.283998         0.459859         0.102427
 C        -3.280594         2.021137        -0.018339
 C        -2.335561         1.936409         1.293143
 C        -1.488465         3.271577         1.353783
 C        -1.418737         3.857837         0.004896
 O        -0.965196         2.840998        -0.958268
 C        -1.893226         1.807219        -0.908310
 H        -0.015400         0.348966         0.236009
 H        -3.610146        -0.093585        -0.804865
 H        -3.656424        -0.008433         0.970328
 H        -4.081137         2.729248        -0.412486
 H        -2.675952         1.554420         2.234295
 H        -2.123011         3.993495         1.875923
 H        -0.554209         3.200989         1.887681
 H        -2.385286         4.248132        -0.272682
 H        -0.746547         4.760270        -0.105652
 H        -1.986498         1.357789        -1.916640
