19
Iteration:  1394
 O        -0.731857        -0.045511         0.528937
 C        -1.729411         0.874388         0.248189
 C        -3.111052         0.322314        -0.079658
 C        -3.422882         1.753946        -0.085903
 C        -2.489827         1.918609         1.176164
 C        -1.576540         3.183955         1.420084
 C        -0.733424         3.624951         0.196521
 O        -1.425238         3.217898        -1.019812
 C        -2.137830         2.007698        -0.924154
 H        -0.106636         0.342193         1.236422
 H        -3.138181        -0.160263        -1.062375
 H        -3.427475        -0.331475         0.727143
 H        -4.373232         2.337917        -0.314760
 H        -2.842717         1.504132         2.118176
 H        -2.259841         4.075903         1.627948
 H        -0.976831         3.185100         2.431599
 H        -0.682194         4.760828         0.025708
 H         0.354653         3.323406         0.304123
 H        -2.228790         1.692312        -1.953639
