19
Iteration:   461
 O        -0.611197         0.310212         0.600522
 C        -1.782173         0.907356         0.216541
 C        -3.235641         0.269562        -0.063551
 C        -3.406889         1.825601        -0.056199
 C        -2.496463         1.936374         1.149083
 C        -1.631346         3.191037         1.491590
 C        -0.700401         3.489056         0.174030
 O        -1.367980         3.104244        -1.077603
 C        -2.103305         1.908284        -0.920363
 H        -0.541175        -0.554860         0.244463
 H        -3.408793        -0.364823        -0.983217
 H        -3.633314        -0.270392         0.816820
 H        -4.324013         2.376727        -0.279662
 H        -2.912148         1.591837         2.093881
 H        -2.237364         4.095139         1.500783
 H        -0.953802         3.196095         2.389464
 H        -0.489301         4.600492         0.166374
 H         0.117829         2.717102         0.349842
 H        -2.273331         1.390066        -1.852667
