19
Iteration:   476charge 0 multiplicity 1
 O        -0.606752         0.239667         0.735901
 C        -1.811654         0.895619         0.214667
 C        -3.113885         0.295977         0.018046
 C        -3.431857         1.838982        -0.112015
 C        -2.425743         1.914434         1.176890
 C        -1.635568         3.180906         1.355243
 C        -0.711674         3.408134         0.185161
 O        -1.398164         3.194643        -1.040682
 C        -2.185144         2.014791        -1.086055
 H        -0.638678        -0.696142         0.423865
 H        -3.257101        -0.220388        -0.903841
 H        -3.580973        -0.188203         0.920745
 H        -4.505863         2.299197        -0.125358
 H        -2.857006         1.340619         2.032190
 H        -2.287808         3.966173         1.828741
 H        -1.040668         2.792939         2.203178
 H        -0.435916         4.379962         0.122182
 H         0.106034         2.790383         0.204532
 H        -2.233745         1.740641        -2.144902
