19
Iteration:   668
 O        -0.741885        -0.065595         0.586773
 C        -1.768573         0.852253         0.309986
 C        -3.165785         0.280952        -0.044930
 C        -3.266375         1.820104        -0.140219
 C        -2.417627         1.980659         1.217179
 C        -1.618493         3.263593         1.338634
 C        -0.766120         3.554324         0.102554
 O        -1.529206         3.250545        -1.000953
 C        -2.028446         1.907251        -0.877044
 H        -0.113308         0.390685         1.238396
 H        -3.357640        -0.028209        -1.063164
 H        -3.672782        -0.273614         0.764942
 H        -4.197626         2.402224        -0.307594
 H        -2.927422         1.629292         2.120329
 H        -2.284413         4.175885         1.445521
 H        -0.954529         3.298219         2.244518
 H        -0.481544         4.692562        -0.007521
 H         0.230046         3.094408        -0.007528
 H        -2.132871         1.467659        -1.967772
