19
Iteration:  2470charge 0 multiplicity 1
 O        -0.500725         0.295176         0.399258
 C        -1.778414         0.877439         0.161795
 C        -3.230163         0.217654         0.049916
 C        -3.414333         1.826814        -0.131665
 C        -2.506828         1.897506         1.193648
 C        -1.742014         3.163532         1.421399
 C        -0.745407         3.440836         0.328550
 O        -1.337269         3.241445        -0.958806
 C        -2.122967         1.979254        -0.949911
 H        -0.497685        -0.634955         0.551688
 H        -3.343318        -0.242274        -0.895704
 H        -3.582960        -0.283078         0.961873
 H        -4.426992         2.290510        -0.571773
 H        -2.940347         1.395137         2.114642
 H        -2.305653         4.131752         1.605036
 H        -1.099001         3.094361         2.299365
 H        -0.271610         4.407821         0.318784
 H         0.003371         2.586618         0.398504
 H        -2.240801         1.572714        -2.011591
