19
Iteration:   828
 O        -0.678002         0.027163         0.592753
 C        -1.761818         0.831509         0.255243
 C        -3.144940         0.304407        -0.078687
 C        -3.359506         1.890760        -0.124960
 C        -2.427313         1.940825         1.216168
 C        -1.626353         3.287848         1.500889
 C        -0.849957         3.522816         0.189733
 O        -1.428245         3.140469        -1.076073
 C        -2.073174         1.978360        -0.921868
 H        -0.303646        -0.223439        -0.325571
 H        -3.203424        -0.242372        -1.080671
 H        -3.676926        -0.051748         0.818321
 H        -4.221494         2.526729        -0.285306
 H        -2.940533         1.427398         2.096372
 H        -2.320840         4.048409         1.829478
 H        -0.883767         3.299084         2.284080
 H        -0.570955         4.632225         0.090477
 H         0.174972         3.163485         0.387627
 H        -2.040166         1.383740        -1.810547
