19
Iteration:  4101
 O        -0.589468         0.073698         0.406960
 C        -1.750695         0.893741         0.205927
 C        -3.257015         0.322080        -0.162516
 C        -3.311866         1.817346        -0.028563
 C        -2.406435         1.758973         1.252438
 C        -1.879082         3.195141         1.413928
 C        -0.770150         3.522457         0.317022
 O        -1.305051         3.266251        -0.977524
 C        -2.057158         2.022527        -0.949466
 H        -0.287940         0.193293         1.310983
 H        -3.293073        -0.285241        -1.081485
 H        -3.667722        -0.353801         0.633517
 H        -4.236170         2.428860        -0.140153
 H        -2.852332         1.203470         2.132024
 H        -2.676065         3.930968         1.323113
 H        -1.339945         3.446780         2.297985
 H        -0.732585         4.627926         0.233481
 H         0.207787         3.060061         0.501853
 H        -2.213349         1.648205        -1.968202
