19
Iteration:  1117
 O        -0.580168         0.025003         0.327266
 C        -1.796500         0.801914         0.161696
 C        -3.198769         0.340176         0.044097
 C        -3.393426         1.853807         0.062450
 C        -2.364439         1.981987         1.212365
 C        -1.830561         3.401062         1.325018
 C        -0.851140         3.387453         0.331651
 O        -1.297219         3.152971        -0.931973
 C        -2.049726         1.929217        -1.024203
 H         0.218620         0.552237         0.439977
 H        -3.599776        -0.076506        -0.870416
 H        -3.552798        -0.201077         0.946871
 H        -4.293496         2.517310        -0.177939
 H        -2.860993         1.480813         2.065335
 H        -2.719864         4.017585         1.199071
 H        -1.384585         3.698670         2.423696
 H        -0.422946         4.362499         0.366377
 H        -0.026201         2.571622         0.651970
 H        -2.099765         1.601992        -2.026096
