19
Iteration:   568
 O        -0.639080         0.218300         0.429564
 C        -1.815836         0.883014         0.215824
 C        -3.317534         0.339186         0.127153
 C        -3.391341         1.931482        -0.013447
 C        -2.380781         1.924205         1.147311
 C        -1.791394         3.215128         1.464076
 C        -0.870738         3.623927         0.175906
 O        -1.073960         2.893701        -1.002566
 C        -2.100172         1.860217        -0.937832
 H        -0.150522         0.161148        -0.389467
 H        -3.641230        -0.273561        -0.731354
 H        -3.474966        -0.099464         1.088611
 H        -4.268545         2.470233        -0.190241
 H        -2.970721         1.612381         2.039800
 H        -2.627838         3.933814         1.546760
 H        -1.200644         3.219477         2.384376
 H        -1.081354         4.720667        -0.310148
 H         0.191279         3.449903         0.325579
 H        -1.942582         1.406097        -2.033786
