19
Iteration:  2479
 O        -0.536870         0.284086         0.362801
 C        -1.785652         0.885564         0.136630
 C        -3.163094         0.262003         0.040053
 C        -3.348178         1.819999        -0.109007
 C        -2.526390         1.948998         1.140402
 C        -1.800821         3.255793         1.473713
 C        -0.694183         3.338938         0.328849
 O        -1.421694         3.204584        -0.937983
 C        -2.064834         1.936352        -0.928110
 H        -0.582704        -0.646342         0.476435
 H        -3.518773        -0.353674        -0.771668
 H        -3.398875        -0.213997         0.948605
 H        -4.185648         2.400112        -0.423446
 H        -2.738831         1.382973         2.085152
 H        -2.527513         4.058883         1.594262
 H        -1.332038         3.087402         2.374300
 H        -0.363631         4.344756         0.181146
 H         0.186326         2.707143         0.478033
 H        -2.199993         1.780914        -2.028697
