19
Iteration:  4687charge 0 multiplicity 1
 O        -0.516218         0.191328         0.453165
 C        -1.721407         0.862110         0.105889
 C        -3.166437         0.347750        -0.444131
 C        -3.349122         1.845291        -0.060875
 C        -2.501015         1.796880         1.130031
 C        -1.823985         3.041237         1.475453
 C        -0.936271         3.584438         0.466677
 O        -1.302984         3.217284        -0.808231
 C        -1.987866         2.044731        -0.906208
 H        -0.938768        -0.504749         1.147573
 H        -3.110984        -0.056201        -1.495493
 H        -3.704477        -0.437816         0.178167
 H        -4.343422         2.333592        -0.215170
 H        -2.682646         1.232915         2.020719
 H        -2.705080         3.746494         1.520885
 H        -1.394433         3.124777         2.499032
 H        -0.833691         4.619304         0.845014
 H         0.174030         3.164652         0.656984
 H        -2.107547         1.704791        -1.975695
