19
Iteration:  4199
 O        -0.595334         0.264913         0.565502
 C        -1.781663         0.888431         0.142594
 C        -3.166204         0.342585        -0.202150
 C        -3.397218         1.875499        -0.113145
 C        -2.372735         1.813160         1.200604
 C        -1.768142         3.182698         1.463683
 C        -0.822161         3.488690         0.363774
 O        -1.373886         3.134580        -0.931364
 C        -2.064130         1.929909        -0.945764
 H        -0.342532        -0.398055        -0.119755
 H        -3.221889        -0.136706        -1.219630
 H        -3.622428        -0.412942         0.481887
 H        -4.300249         2.526178        -0.173726
 H        -2.689066         1.326620         2.125371
 H        -2.504861         4.014855         1.433282
 H        -1.278877         3.156790         2.438652
 H        -0.649082         4.590818         0.320473
 H         0.101888         2.911671         0.357028
 H        -2.115284         1.510742        -1.991341
