19
Iteration:  3032charge 0 multiplicity 1
 O        -0.500361         0.262531         0.291387
 C        -1.782446         0.891721         0.231822
 C        -3.167124         0.358206        -0.060595
 C        -3.362437         1.825929        -0.050325
 C        -2.444939         1.835163         1.258326
 C        -1.837605         3.197820         1.414772
 C        -0.736446         3.358898         0.296810
 O        -1.365582         3.159456        -0.974130
 C        -2.116255         1.986482        -0.912562
 H        -0.360352        -0.141795         1.222332
 H        -3.361202        -0.118009        -1.108943
 H        -3.676171        -0.150902         0.791247
 H        -4.313999         2.442460        -0.137611
 H        -2.980634         1.567916         2.128217
 H        -2.647029         4.013931         1.226772
 H        -1.340062         3.472998         2.347747
 H        -0.404229         4.406728         0.220212
 H        -0.048873         2.568692         0.694444
 H        -2.235493         1.466325        -1.903490
