19
Iteration:  4631
 O        -0.562529         0.103452         0.256807
 C        -1.711163         0.934246         0.147306
 C        -3.104758         0.328530        -0.165629
 C        -3.328080         1.838970        -0.269477
 C        -2.599315         1.892886         1.134403
 C        -1.945300         3.158644         1.568779
 C        -0.781071         3.463621         0.566839
 O        -1.368085         3.191096        -0.822424
 C        -1.987833         1.973071        -0.926267
 H         0.219389         0.767366         0.174909
 H        -3.087910        -0.367997        -1.040571
 H        -3.460202        -0.226803         0.750845
 H        -4.329507         2.252022        -0.465135
 H        -3.139257         1.362852         1.903380
 H        -2.614098         4.041622         1.631152
 H        -1.551977         3.078066         2.599293
 H        -0.585084         4.555504         0.726352
 H         0.135930         2.786661         0.785863
 H        -1.806420         1.684314        -1.987089
