19
Iteration:  2698charge 0 multiplicity 1
 O        -0.514093         0.279254         0.313254
 C        -1.810375         0.828954         0.181602
 C        -3.205238         0.272618        -0.061172
 C        -3.343747         1.797690        -0.028012
 C        -2.527405         1.903140         1.220018
 C        -1.853427         3.290211         1.468287
 C        -0.725645         3.484392         0.381263
 O        -1.275567         3.165030        -0.956429
 C        -2.102438         1.888933        -0.969433
 H        -0.635606        -0.734726         0.234772
 H        -3.484519        -0.183048        -1.099061
 H        -3.505856        -0.195716         0.932423
 H        -4.320766         2.435594        -0.147033
 H        -2.973584         1.576208         2.161566
 H        -2.675912         4.053581         1.408153
 H        -1.245700         3.241850         2.449151
 H        -0.326227         4.468460         0.197725
 H         0.216095         2.969646         0.567021
 H        -2.184720         1.402908        -2.022348
