19
Iteration:  1251
 O        -0.689927         0.076817         0.530735
 C        -1.789743         0.883656         0.225771
 C        -3.116649         0.267997        -0.067990
 C        -3.288251         1.838077        -0.092136
 C        -2.446999         1.940072         1.194865
 C        -1.639566         3.214118         1.421710
 C        -0.762530         3.608855         0.204239
 O        -1.477981         3.229312        -0.985597
 C        -2.048858         1.909203        -0.926353
 H        -0.986234        -0.856779         0.415404
 H        -3.183520        -0.150848        -1.069945
 H        -3.480468        -0.300921         0.759813
 H        -4.224409         2.380391        -0.322323
 H        -2.872979         1.707033         2.157293
 H        -2.465974         3.850511         1.764996
 H        -1.054567         3.130611         2.361580
 H        -0.551074         4.667480         0.137171
 H         0.140765         2.914212         0.181671
 H        -2.122494         1.550042        -1.922583
