19
Iteration:  2558charge 0 multiplicity 1
 O        -0.603756         0.146337         0.333682
 C        -1.736748         0.835627         0.120820
 C        -3.266452         0.285500        -0.081322
 C        -3.267746         1.887865        -0.125855
 C        -2.418071         1.881375         1.173979
 C        -1.705342         3.257831         1.554728
 C        -0.881622         3.683772         0.321258
 O        -1.350320         3.063422        -0.949317
 C        -2.045881         1.896082        -0.929987
 H        -0.631716        -0.014082         1.285241
 H        -3.451164        -0.351265        -0.911819
 H        -3.723176        -0.104431         0.831172
 H        -4.284293         2.471962        -0.090571
 H        -2.867818         1.289400         2.041506
 H        -2.608674         3.782725         1.884061
 H        -1.051678         3.117322         2.339494
 H        -0.731020         4.686932         0.012234
 H         0.098189         3.328143         0.693717
 H        -2.211865         1.427385        -1.945975
