19
Iteration:   418
 O        -0.605517         0.127858         0.390080
 C        -1.806439         0.889172         0.209819
 C        -3.232918         0.318994         0.084781
 C        -3.366733         1.851812        -0.001258
 C        -2.487243         1.979595         1.222695
 C        -1.838932         3.355482         1.366404
 C        -0.779226         3.528417         0.328360
 O        -1.185617         2.974524        -1.070144
 C        -2.072464         1.856870        -0.949675
 H         0.048725         0.319338        -0.293764
 H        -3.645557        -0.289539        -0.779658
 H        -3.706516        -0.132995         0.986310
 H        -4.247512         2.467190        -0.329123
 H        -2.668910         1.598034         2.279599
 H        -2.547273         4.231778         1.330481
 H        -1.249655         3.355742         2.381940
 H        -0.791248         4.597389         0.104257
 H         0.160281         3.050003         0.707645
 H        -2.278890         1.518512        -1.936875
