19
Iteration:  1459charge 0 multiplicity 1
 O        -0.577603         0.238492         0.384173
 C        -1.837311         0.845741         0.243351
 C        -3.308275         0.324747        -0.046243
 C        -3.320832         1.830659        -0.061494
 C        -2.447240         1.899986         1.206930
 C        -1.735041         3.264372         1.472451
 C        -0.856639         3.649106         0.221520
 O        -1.213771         3.011689        -0.973576
 C        -2.039849         1.860294        -0.879665
 H        -0.604388        -0.578689        -0.183862
 H        -3.390577        -0.046264        -1.091775
 H        -3.751407        -0.231752         0.796737
 H        -4.195345         2.562555        -0.206781
 H        -2.987664         1.417683         2.018192
 H        -2.457219         4.043239         1.744939
 H        -1.059337         3.015757         2.421805
 H        -0.850385         4.785226         0.199378
 H         0.150507         3.203696         0.391045
 H        -2.238897         1.454328        -1.835406
