19
Iteration:  1361
 O        -0.559955         0.212504         0.410813
 C        -1.723220         0.883407         0.232671
 C        -3.263768         0.414800        -0.011076
 C        -3.375948         1.852566        -0.115250
 C        -2.380058         1.917004         1.189858
 C        -1.715483         3.245998         1.441608
 C        -0.775514         3.370629         0.294556
 O        -1.462591         3.175217        -1.013092
 C        -2.067091         1.847193        -0.942593
 H        -0.579451        -0.264728         1.281413
 H        -3.276297        -0.136180        -0.964789
 H        -3.731307        -0.193196         0.751628
 H        -4.134709         2.647565        -0.426111
 H        -2.654945         1.392919         2.115101
 H        -2.576913         3.962710         1.367793
 H        -1.135620         3.315946         2.444252
 H        -0.469561         4.461013         0.244960
 H         0.035560         2.581536         0.365201
 H        -2.100759         1.382626        -1.921500
