19
Iteration:  4840
 O        -0.523007         0.057965         0.257068
 C        -1.674170         0.911264         0.126145
 C        -3.145856         0.314645        -0.242597
 C        -3.310340         1.850651        -0.303017
 C        -2.631215         1.841548         1.168740
 C        -1.909383         3.088273         1.628432
 C        -0.870272         3.520441         0.544313
 O        -1.372002         3.312737        -0.740211
 C        -1.885702         1.981622        -0.972605
 H         0.203052         0.538628         0.771452
 H        -3.218553        -0.123715        -1.278629
 H        -3.768977        -0.338106         0.419491
 H        -4.257219         2.327327        -0.600328
 H        -3.287175         1.387011         1.922157
 H        -2.697731         3.858842         1.663316
 H        -1.583924         2.897798         2.672005
 H        -0.713300         4.600738         0.638810
 H         0.016892         3.004894         0.806111
 H        -1.841779         1.542840        -1.974955
