19
Iteration:  1660
 O        -0.627865         0.017979         0.368150
 C        -1.757221         0.817524         0.240815
 C        -3.198900         0.304246        -0.017014
 C        -3.337503         1.872860        -0.077422
 C        -2.314542         1.918035         1.196403
 C        -1.823140         3.308236         1.463805
 C        -0.848733         3.682780         0.240774
 O        -1.292411         3.107967        -0.965654
 C        -2.095962         1.980680        -0.947637
 H        -0.737713        -0.984298         0.538166
 H        -3.331617        -0.275964        -0.929245
 H        -3.566286        -0.344927         0.779256
 H        -4.299410         2.382024        -0.154634
 H        -2.797820         1.468497         2.064871
 H        -2.736815         3.922581         1.516792
 H        -1.209918         3.604812         2.401357
 H        -0.674849         4.820031         0.211420
 H         0.035902         3.123375         0.525647
 H        -2.036115         1.385755        -1.890065
