19
Iteration:  1305charge 0 multiplicity 1
 O        -0.595906         0.333297         0.284413
 C        -1.802085         0.920963         0.186949
 C        -3.185673         0.288146        -0.031549
 C        -3.448390         1.829649        -0.031048
 C        -2.546751         1.944365         1.261296
 C        -1.777946         3.353718         1.398439
 C        -0.721701         3.416527         0.281639
 O        -1.207260         2.981256        -0.938410
 C        -2.096722         1.887292        -0.885338
 H        -0.680008        -0.688008         0.245475
 H        -3.259025        -0.239618        -0.996665
 H        -3.681780        -0.254993         0.756512
 H        -4.438351         2.302780         0.151712
 H        -2.797177         1.496828         2.195200
 H        -2.542487         4.110692         1.396906
 H        -1.244395         3.471896         2.439280
 H        -0.436997         4.451765         0.164553
 H         0.321090         2.989323         0.424511
 H        -2.032282         1.371355        -1.778355
