19
Iteration:  2170
 O        -0.568575         0.269463         0.256336
 C        -1.788967         0.889452         0.273708
 C        -3.250538         0.254428         0.017852
 C        -3.472963         1.837003         0.012812
 C        -2.433799         1.871857         1.214798
 C        -1.824023         3.252621         1.406262
 C        -0.776799         3.556630         0.306862
 O        -1.214946         3.054645        -0.946609
 C        -1.989106         1.927970        -1.018733
 H        -0.614509        -0.467382         0.815369
 H        -3.329247        -0.296504        -0.919382
 H        -3.649441        -0.212972         0.914388
 H        -4.342809         2.487457        -0.019548
 H        -2.888006         1.542553         2.205455
 H        -2.720353         3.999922         1.315538
 H        -1.389872         3.280242         2.384259
 H        -0.593189         4.655733         0.206874
 H         0.153816         3.013829         0.328982
 H        -2.242879         1.461613        -2.052296
