19
Iteration:  1786charge 0 multiplicity 1
 O        -0.679690         0.079984         0.480061
 C        -1.747917         0.943743         0.178326
 C        -3.230844         0.298095        -0.046610
 C        -3.394108         1.759064        -0.027052
 C        -2.375191         1.894803         1.205597
 C        -1.736017         3.228864         1.418853
 C        -0.825674         3.574092         0.250319
 O        -1.297365         3.118674        -1.033644
 C        -2.088899         1.970352        -0.898079
 H         0.146639         0.471836         0.060603
 H        -3.406078        -0.136526        -1.032496
 H        -3.604240        -0.194695         0.853445
 H        -4.245152         2.387315        -0.206423
 H        -2.747090         1.532007         2.186113
 H        -2.447476         4.138227         1.598112
 H        -1.171834         3.168976         2.311193
 H        -0.631036         4.598348         0.259329
 H         0.156773         3.113166         0.448747
 H        -2.233980         1.435147        -1.893338
