19
Iteration:  4564
 O        -0.580817         0.197621         0.496695
 C        -1.785802         0.896515         0.147736
 C        -3.138924         0.295250        -0.307286
 C        -3.347545         1.835382        -0.177232
 C        -2.509756         1.777530         1.156577
 C        -1.777820         3.122211         1.581226
 C        -0.906584         3.529471         0.492053
 O        -1.343974         3.267325        -0.906524
 C        -1.988917         2.019525        -0.990614
 H        -0.124356        -0.121853        -0.268489
 H        -3.205247        -0.358135        -1.205569
 H        -3.512170        -0.303541         0.560343
 H        -4.306964         2.299532        -0.313529
 H        -2.916741         1.323210         2.036048
 H        -2.441712         3.958429         1.884796
 H        -1.203004         2.872944         2.475488
 H        -0.647948         4.606831         0.466719
 H         0.040538         2.905469         0.681237
 H        -2.019866         1.405384        -1.881873
