19
Iteration:  3933charge 0 multiplicity 1
 O        -0.590745         0.144024         0.371663
 C        -1.784767         0.922447         0.236310
 C        -3.188540         0.376225        -0.049601
 C        -3.359115         1.862120        -0.153205
 C        -2.630745         1.896460         1.218394
 C        -1.723295         3.137742         1.520933
 C        -0.824006         3.627592         0.323949
 O        -1.289182         3.088747        -0.983597
 C        -2.003381         1.835435        -0.870171
 H        -0.018273         0.517330        -0.320312
 H        -3.206001        -0.269921        -0.979166
 H        -3.718800        -0.179364         0.766081
 H        -4.228986         2.366488        -0.513482
 H        -3.053431         1.360902         2.091673
 H        -2.427106         3.939310         1.743021
 H        -1.221852         2.912367         2.465575
 H        -0.858176         4.725651         0.072916
 H         0.325492         3.337506         0.391850
 H        -1.945367         1.393060        -1.937493
