19
Iteration:  2288charge 0 multiplicity 1
 O        -0.533049         0.307849         0.385080
 C        -1.829255         0.916184         0.304592
 C        -3.166842         0.251602        -0.056417
 C        -3.441238         1.802421        -0.142576
 C        -2.515000         1.929866         1.199697
 C        -1.639581         3.148472         1.488817
 C        -0.726558         3.406526         0.320301
 O        -1.422266         3.214855        -1.057889
 C        -2.100429         1.959943        -0.914339
 H        -0.572998        -0.604575         0.786401
 H        -3.114910        -0.246361        -1.098553
 H        -3.565511        -0.288436         0.877497
 H        -4.313211         2.440061        -0.504597
 H        -3.070247         1.591706         2.116097
 H        -2.327716         3.973578         1.573074
 H        -1.004125         3.057724         2.428132
 H        -0.411489         4.478495         0.292110
 H         0.136132         2.691266         0.362844
 H        -2.043158         1.303328        -1.769855
