19
Iteration:  4894
 O        -0.555317         0.180912         0.553834
 C        -1.733320         0.861830         0.115274
 C        -3.111513         0.298921        -0.522597
 C        -3.395099         1.795661        -0.185592
 C        -2.529062         1.680551         1.120480
 C        -1.857436         3.098590         1.506167
 C        -0.829738         3.584910         0.535245
 O        -1.327253         3.332486        -0.751958
 C        -1.984364         2.035974        -0.881378
 H        -0.224972        -0.122074        -0.324096
 H        -3.287589         0.124543        -1.603903
 H        -3.659707        -0.428628         0.093977
 H        -4.355950         2.327159        -0.169906
 H        -2.895322         1.196019         2.055380
 H        -2.686868         3.809575         1.566996
 H        -1.511410         2.937428         2.512062
 H        -0.623841         4.676128         0.634999
 H         0.180396         3.045473         0.746741
 H        -2.118924         1.676887        -1.877232
