19
Iteration:   511
 O        -0.677689         0.102078         0.765332
 C        -1.817689         0.859945         0.302075
 C        -3.176647         0.298620        -0.119045
 C        -3.349218         1.857413        -0.108710
 C        -2.422587         1.902542         1.218772
 C        -1.592227         3.266367         1.381946
 C        -0.700606         3.488243         0.068480
 O        -1.614499         3.274727        -0.987803
 C        -2.003061         1.907018        -0.990502
 H        -0.433871        -0.583511         0.086034
 H        -3.136960        -0.144775        -1.121006
 H        -3.704990        -0.354583         0.552278
 H        -4.254115         2.333142        -0.414638
 H        -2.713602         1.500835         2.223757
 H        -2.114829         4.238696         1.510804
 H        -0.900651         3.159848         2.221492
 H        -0.168346         4.490139         0.042852
 H         0.114145         2.807257         0.115466
 H        -1.879171         1.297896        -1.975091
