19
Iteration:  4748charge 0 multiplicity 1
 O        -0.513653         0.137705         0.436003
 C        -1.744257         0.887251         0.099345
 C        -3.098344         0.269305        -0.305116
 C        -3.376013         1.824026        -0.306236
 C        -2.639666         1.902342         1.088641
 C        -1.890231         3.107803         1.628085
 C        -0.758874         3.527936         0.541634
 O        -1.415581         3.288913        -0.732977
 C        -1.920772         1.959415        -0.906114
 H        -0.091271         0.075331        -0.504318
 H        -3.153866        -0.222483        -1.277210
 H        -3.666700        -0.311340         0.413324
 H        -4.394900         2.201635        -0.505913
 H        -3.086054         1.323471         1.963237
 H        -2.664635         3.860871         1.877135
 H        -1.319948         2.991173         2.569841
 H        -0.403374         4.585156         0.484512
 H         0.105419         2.859298         0.376169
 H        -1.915616         1.807421        -2.011572
