19
Iteration:   877charge 0 multiplicity 1
 O        -0.560671         0.452613         0.644414
 C        -1.793569         0.824048         0.209146
 C        -3.289670         0.314444        -0.035420
 C        -3.445585         1.811783        -0.166051
 C        -2.413977         1.911050         1.133716
 C        -1.578237         3.086590         1.462792
 C        -0.667791         3.428603         0.242490
 O        -1.426463         3.145130        -0.986067
 C        -2.180053         1.943576        -1.041487
 H        -0.407868        -0.426351         0.404144
 H        -3.420462        -0.243096        -0.924615
 H        -3.749912        -0.185648         0.829437
 H        -4.339401         2.426525        -0.451766
 H        -2.713789         1.475124         2.099901
 H        -2.306340         3.846162         1.837420
 H        -0.968992         2.878991         2.368255
 H        -0.139286         4.334629         0.044809
 H         0.008535         2.619226         0.439680
 H        -2.340700         1.611196        -2.135173
