19
Iteration:  2715
 O        -0.561230         0.271455         0.363205
 C        -1.725167         0.909803         0.176609
 C        -3.295799         0.320306        -0.036241
 C        -3.421524         1.848110        -0.060516
 C        -2.396111         1.802667         1.217927
 C        -1.827061         3.168199         1.426760
 C        -0.843506         3.490605         0.315864
 O        -1.299637         3.129641        -0.995647
 C        -1.978946         1.984919        -0.865273
 H        -0.683748        -0.755283         0.323328
 H        -3.264884        -0.235436        -0.943465
 H        -3.833890        -0.123999         0.756858
 H        -4.262469         2.441695        -0.184293
 H        -2.676293         1.260006         2.203416
 H        -2.623404         3.887560         1.230998
 H        -1.383928         3.390288         2.375290
 H        -0.469943         4.584433         0.324810
 H         0.128710         2.894181         0.496775
 H        -1.891827         1.677742        -1.864092
