19
Iteration:   117charge 0 multiplicity 1
 O        -0.666427         0.174849         0.759936
 C        -1.806013         0.883145         0.197430
 C        -3.220897         0.342109        -0.042541
 C        -3.335505         1.931483        -0.054023
 C        -2.433438         1.955532         1.241281
 C        -1.472892         3.076735         1.443093
 C        -0.994483         3.677006         0.112659
 O        -1.263816         3.026139        -1.174339
 C        -2.112644         1.899816        -1.022650
 H        -0.614814        -0.747763         0.499940
 H        -3.430255        -0.229144        -0.923767
 H        -3.609211        -0.230374         0.890465
 H        -4.326768         2.416743        -0.136997
 H        -2.911162         1.559527         2.186128
 H        -1.969190         3.915797         1.992755
 H        -0.601948         2.705923         2.069965
 H        -1.497696         4.660517         0.070049
 H         0.057547         3.815845         0.248112
 H        -2.294446         1.456133        -2.064642
