19
Iteration:  2060
 O        -0.563818         0.215327         0.425416
 C        -1.809635         0.882343         0.221925
 C        -3.224619         0.308291        -0.115656
 C        -3.339221         1.936430        -0.032199
 C        -2.443993         1.809415         1.221878
 C        -1.627526         3.158238         1.487744
 C        -0.914977         3.651397         0.155165
 O        -1.337775         3.021175        -0.995230
 C        -2.080470         1.896159        -0.881683
 H        -0.713936        -0.288677         1.313394
 H        -3.284525        -0.019967        -1.133014
 H        -3.655812        -0.270170         0.690178
 H        -4.259207         2.487767        -0.127829
 H        -3.142270         1.508832         2.058569
 H        -2.257397         4.069154         1.760785
 H        -0.925177         3.054103         2.279330
 H        -0.942735         4.756472         0.125219
 H         0.200159         3.430579         0.212232
 H        -1.902403         1.503646        -2.047782
