19
Iteration:  4774charge 0 multiplicity 1
 O        -0.555617         0.318122         0.404495
 C        -1.755726         0.908963         0.161882
 C        -3.096446         0.313728        -0.351040
 C        -3.314424         1.826248        -0.161737
 C        -2.526810         1.722719         1.140508
 C        -1.972820         3.062145         1.538444
 C        -0.844372         3.476045         0.529644
 O        -1.243379         3.269085        -0.796402
 C        -2.027092         2.033175        -0.960296
 H        -0.706593        -0.652585         0.216524
 H        -3.147195        -0.050524        -1.401201
 H        -3.655120        -0.399629         0.310252
 H        -4.286662         2.326542        -0.183718
 H        -2.895493         1.114302         1.961567
 H        -2.843004         3.712124         1.679992
 H        -1.393615         3.184343         2.455327
 H        -0.423270         4.467207         0.614243
 H        -0.046900         2.814775         0.581349
 H        -1.955193         1.714185        -2.023427
