19
Iteration:  3508charge 0 multiplicity 1
 O        -0.583574         0.092946         0.499551
 C        -1.769621         0.801238         0.187178
 C        -3.196800         0.396429        -0.181069
 C        -3.319226         1.877105        -0.124407
 C        -2.347813         1.786407         1.213335
 C        -1.777529         3.106852         1.432955
 C        -0.950436         3.685577         0.311639
 O        -1.295633         3.184936        -0.955412
 C        -2.048772         1.988492        -0.904238
 H        -0.745555        -0.847844         0.525592
 H        -3.468677        -0.096323        -1.183566
 H        -3.747716        -0.163118         0.653565
 H        -4.317791         2.436443        -0.203260
 H        -2.755581         1.297132         2.139270
 H        -2.581890         3.771571         1.719087
 H        -1.130031         3.222654         2.281604
 H        -0.979866         4.776537         0.331344
 H         0.130374         3.454512         0.465490
 H        -2.002327         1.725386        -1.955726
