19
Iteration:  3483
 O        -0.646418         0.089366         0.542780
 C        -1.791362         0.831901         0.126658
 C        -3.232202         0.272742        -0.188889
 C        -3.346860         1.838745        -0.138348
 C        -2.422687         1.907562         1.192875
 C        -1.663203         3.129023         1.554728
 C        -0.935881         3.716382         0.341713
 O        -1.311803         3.176177        -0.995134
 C        -1.993545         1.898975        -0.896201
 H        -0.114816        -0.226681        -0.265253
 H        -3.312517        -0.181989        -1.152325
 H        -3.738862        -0.344098         0.591082
 H        -4.316096         2.487622        -0.243780
 H        -2.912058         1.424286         2.074783
 H        -2.378282         3.951003         1.949917
 H        -0.972042         3.091781         2.379182
 H        -1.048917         4.847895         0.396289
 H         0.184618         3.556521         0.305044
 H        -2.027290         1.723794        -1.998118
