19
Iteration:  1147
 O        -0.689183         0.131380         0.290073
 C        -1.789782         0.918010         0.309093
 C        -3.150788         0.263864        -0.013109
 C        -3.400487         1.810915        -0.031793
 C        -2.470390         1.922203         1.242199
 C        -1.757464         3.334943         1.427762
 C        -0.769716         3.502714         0.283304
 O        -1.202025         3.030794        -0.962506
 C        -2.139383         1.947012        -0.887927
 H        -0.036035         0.508793        -0.405179
 H        -3.362937        -0.269065        -0.975056
 H        -3.653587        -0.321686         0.819079
 H        -4.267448         2.364350        -0.450908
 H        -3.110762         1.661509         2.117136
 H        -2.633796         3.942097         1.183330
 H        -1.112277         3.491480         2.366402
 H        -0.605743         4.643540         0.226485
 H         0.304935         3.231583         0.513606
 H        -2.122836         1.475120        -1.880319
