19
Iteration:   908charge 0 multiplicity 1
 O        -0.556499         0.271107         0.474158
 C        -1.803385         0.910146         0.277666
 C        -3.139155         0.329670        -0.052656
 C        -3.421903         1.852446        -0.075073
 C        -2.550953         1.934693         1.241611
 C        -1.699168         3.199689         1.416400
 C        -0.683070         3.382237         0.223115
 O        -1.367615         3.115317        -1.024516
 C        -2.123470         1.945768        -0.879672
 H        -0.367216        -0.395120        -0.276622
 H        -3.342355        -0.246914        -0.953857
 H        -3.557129        -0.259288         0.793493
 H        -4.294514         2.440670        -0.432309
 H        -2.983524         1.587818         2.232528
 H        -2.491154         3.975368         1.424725
 H        -1.222652         3.246654         2.324902
 H        -0.298430         4.378331         0.121620
 H         0.004630         2.603155         0.384450
 H        -2.203909         1.565433        -1.919372
