19
Iteration:  1945charge 0 multiplicity 1
 O        -0.578364         0.261974         0.443972
 C        -1.780450         0.908821         0.167447
 C        -3.177145         0.266468        -0.027685
 C        -3.423745         1.769679        -0.119566
 C        -2.428958         1.925565         1.202153
 C        -1.673788         3.292586         1.464220
 C        -0.717630         3.406449         0.301204
 O        -1.448807         3.162787        -0.975632
 C        -2.097109         1.955292        -0.972555
 H        -0.557453        -0.597085         0.975397
 H        -3.222304        -0.331516        -1.011142
 H        -3.691221        -0.053762         0.907397
 H        -4.527485         2.070891        -0.166672
 H        -2.832803         1.497142         2.151162
 H        -2.328888         4.141609         1.457392
 H        -1.024187         3.313187         2.451824
 H        -0.338698         4.388333        -0.099412
 H         0.062317         2.662950         0.285397
 H        -2.116763         1.550788        -1.925952
