19
Iteration:  1043
 O        -0.628045         0.195332         0.578870
 C        -1.754953         0.836154         0.200219
 C        -3.330365         0.379955        -0.007051
 C        -3.316452         1.934980        -0.154901
 C        -2.391378         1.849200         1.159892
 C        -1.519289         2.985942         1.408859
 C        -0.892891         3.601628         0.189636
 O        -1.407686         3.134516        -1.005906
 C        -2.064934         1.939380        -0.965735
 H        -0.256704         0.558443         1.393586
 H        -3.438491        -0.161893        -0.942087
 H        -3.680710        -0.261406         0.782612
 H        -4.254684         2.554519        -0.197507
 H        -3.033632         1.522130         2.008154
 H        -2.213725         3.635504         1.896770
 H        -0.865299         2.811730         2.127584
 H        -1.116189         4.637201         0.231164
 H         0.143612         3.457073         0.216524
 H        -2.066143         1.367474        -1.956009
