19
Iteration:  2525charge 0 multiplicity 1
 O        -0.576678         0.137936         0.309814
 C        -1.765947         0.868763         0.160555
 C        -3.149854         0.250196        -0.140943
 C        -3.311302         1.842117         0.074250
 C        -2.572275         1.875135         1.270082
 C        -1.813663         3.254622         1.421498
 C        -0.774531         3.583146         0.292313
 O        -1.294277         3.172081        -1.012229
 C        -2.056640         1.934487        -0.833716
 H        -0.636637        -0.652657         0.799130
 H        -3.340052        -0.234603        -1.049919
 H        -3.631426        -0.291154         0.680461
 H        -4.415756         2.308262         0.111433
 H        -3.072748         1.661346         2.254361
 H        -2.555677         4.091880         1.315613
 H        -1.302845         3.409195         2.323479
 H        -0.435417         4.569118         0.075293
 H         0.169290         2.968854         0.417356
 H        -2.103451         1.637423        -1.917989
