19
Iteration:   650
 O        -0.721646        -0.082251         0.574650
 C        -1.722129         0.796128         0.197897
 C        -3.234786         0.321106         0.063408
 C        -3.390765         1.880166        -0.046741
 C        -2.381376         1.953040         1.120618
 C        -1.642495         3.315102         1.425328
 C        -0.815409         3.693014         0.230431
 O        -1.430726         3.164875        -1.074052
 C        -2.000650         1.852635        -1.050382
 H        -0.005502         0.506823         0.977566
 H        -3.429204        -0.445689        -0.702135
 H        -3.660355        -0.061471         1.017696
 H        -4.263740         2.554426        -0.307792
 H        -2.786477         1.550659         2.042959
 H        -2.361434         4.035063         1.654131
 H        -1.088879         3.161656         2.341944
 H        -0.578658         4.680817         0.061618
 H         0.215107         3.164100         0.317040
 H        -1.956239         1.515095        -2.000017
