19
Iteration:  4063
 O        -0.569156         0.194629         0.377478
 C        -1.757205         0.934176         0.203938
 C        -3.253277         0.212824        -0.160530
 C        -3.412518         1.745149        -0.147611
 C        -2.536969         1.902927         1.227353
 C        -1.682907         3.207043         1.495643
 C        -0.815085         3.559286         0.324513
 O        -1.345706         3.207130        -0.922501
 C        -1.971113         1.905080        -0.956169
 H        -0.565280        -0.166522         1.240857
 H        -3.316110        -0.229788        -1.184781
 H        -3.861989        -0.198740         0.653435
 H        -4.211081         2.459969        -0.268171
 H        -2.947016         1.469364         2.123205
 H        -2.290894         4.029638         1.984038
 H        -1.009591         2.831274         2.373032
 H        -0.764047         4.645801         0.293020
 H         0.223911         3.242827         0.425417
 H        -2.066046         1.619438        -2.067904
