19
Iteration:  4961
 O        -0.518499         0.257659         0.282061
 C        -1.701718         0.811117         0.164373
 C        -3.110480         0.217320        -0.441656
 C        -3.327172         1.777278        -0.236035
 C        -2.611635         1.819834         1.178151
 C        -1.940604         3.126878         1.589283
 C        -0.744835         3.531887         0.632652
 O        -1.327445         3.314188        -0.760660
 C        -2.035286         2.064824        -0.937663
 H        -0.542958        -0.537400         0.929474
 H        -3.243168        -0.274615        -1.426310
 H        -3.680902        -0.412130         0.272649
 H        -4.352158         2.097521        -0.617286
 H        -3.277984         1.248482         1.812738
 H        -2.676231         3.939655         1.583870
 H        -1.508408         3.162762         2.599352
 H        -0.345988         4.586881         0.836746
 H         0.062637         2.789290         0.945455
 H        -1.828636         1.801268        -1.965733
