19
Iteration:  2664
 O        -0.582389         0.236655         0.299106
 C        -1.736115         0.965761         0.242244
 C        -3.113997         0.324446        -0.075031
 C        -3.401880         1.757905        -0.091653
 C        -2.536971         1.908884         1.225565
 C        -1.782753         3.268155         1.464360
 C        -0.694386         3.423520         0.375513
 O        -1.398049         3.165895        -0.980296
 C        -2.088623         1.923944        -0.942076
 H        -0.809532        -0.660005         0.588436
 H        -3.167562        -0.314856        -1.048120
 H        -3.509542        -0.346964         0.732666
 H        -4.358880         2.324948        -0.239095
 H        -2.980013         1.585347         2.150759
 H        -2.447711         4.143550         1.597673
 H        -1.279473         3.225907         2.525723
 H        -0.298756         4.437325         0.196036
 H         0.036297         2.647590         0.603959
 H        -1.838008         1.383192        -1.898131
