19
Iteration:  3874charge 0 multiplicity 1
 O        -0.660240        -0.001226         0.433490
 C        -1.783228         0.864218         0.207736
 C        -3.212935         0.337667        -0.079908
 C        -3.322507         1.878779        -0.070418
 C        -2.434146         1.867627         1.209336
 C        -1.698767         3.139004         1.473343
 C        -1.006346         3.716113         0.276719
 O        -1.224634         3.140496        -1.023696
 C        -2.008097         1.925899        -0.969902
 H        -0.097509         0.680490         0.953650
 H        -3.285897        -0.157951        -1.047116
 H        -3.617327        -0.244133         0.796657
 H        -4.269441         2.510943        -0.185987
 H        -2.988459         1.476875         2.049072
 H        -2.454299         3.876485         1.827386
 H        -0.872671         2.963106         2.252055
 H        -1.108492         4.770209         0.176769
 H        -0.040318         3.439543         0.677326
 H        -2.109419         1.422492        -1.922679
