19
Iteration:   658
 O        -0.725637        -0.081444         0.592796
 C        -1.768391         0.802985         0.205983
 C        -3.216069         0.330534        -0.032287
 C        -3.292595         1.806233        -0.041776
 C        -2.399817         2.017577         1.160789
 C        -1.620188         3.297784         1.386539
 C        -0.748292         3.614490         0.177466
 O        -1.518574         3.219853        -1.059062
 C        -1.994265         1.879503        -0.949814
 H        -0.052468         0.402476         1.136390
 H        -3.458704        -0.366296        -0.816084
 H        -3.673045        -0.007064         0.918840
 H        -4.244661         2.299211        -0.407605
 H        -2.815359         1.713792         2.107955
 H        -2.400954         4.033287         1.535131
 H        -1.042811         3.195486         2.337375
 H        -0.754853         4.755393         0.168932
 H         0.255516         3.098227         0.286327
 H        -2.033736         1.391283        -1.989154
