19
Iteration:  1215
 O        -0.666701         0.172555         0.653727
 C        -1.779252         0.888736         0.168143
 C        -3.225231         0.277845        -0.112188
 C        -3.324045         1.854946        -0.073096
 C        -2.452727         1.926865         1.215977
 C        -1.575593         3.057879         1.446798
 C        -0.858656         3.673871         0.183944
 O        -1.397074         3.182913        -1.043617
 C        -2.051596         1.908517        -0.929128
 H        -0.402617        -0.599469         0.144544
 H        -3.512090        -0.141347        -1.088261
 H        -3.653321        -0.339538         0.692938
 H        -4.246643         2.398865        -0.275635
 H        -3.019693         1.534908         2.046001
 H        -2.134160         3.867451         1.856586
 H        -0.738491         2.709988         2.176777
 H        -0.734770         4.724975         0.183748
 H         0.224324         3.310083         0.287063
 H        -2.157027         1.516305        -1.881140
