19
Iteration:  2677
 O        -0.505364         0.207446         0.286526
 C        -1.785511         0.944050         0.212134
 C        -3.062881         0.270686        -0.072322
 C        -3.479693         1.846060        -0.104594
 C        -2.534140         2.023484         1.178114
 C        -1.791198         3.307735         1.506043
 C        -0.762196         3.425021         0.283159
 O        -1.337621         3.078754        -0.856363
 C        -2.074482         1.923820        -0.872852
 H        -0.757678        -0.742207         0.382678
 H        -3.132718        -0.179233        -1.125729
 H        -3.553095        -0.301949         0.803953
 H        -4.585378         2.083576        -0.467510
 H        -2.881698         1.350305         2.008226
 H        -2.563045         4.154499         1.524383
 H        -1.202561         3.181583         2.472495
 H        -0.285464         4.376863         0.187893
 H         0.083996         2.721050         0.455380
 H        -2.344225         1.623659        -1.974339
