19
Iteration:  3279charge 0 multiplicity 1
 O        -0.674205         0.033337         0.429867
 C        -1.780721         0.838612         0.177487
 C        -3.177690         0.265094        -0.029192
 C        -3.320517         1.835882        -0.152476
 C        -2.498160         1.960554         1.162057
 C        -1.657226         3.159235         1.485522
 C        -0.853301         3.624919         0.248560
 O        -1.406982         3.212909        -0.931545
 C        -2.024295         1.959919        -0.904397
 H         0.185550         0.586222         0.335142
 H        -3.340488        -0.282761        -0.946937
 H        -3.528166        -0.232705         0.901381
 H        -4.460466         2.123828        -0.234852
 H        -2.799345         1.552134         2.122812
 H        -2.290490         3.953733         1.911481
 H        -0.888561         2.679871         2.214331
 H        -0.768590         4.704328         0.115211
 H         0.296594         3.344466         0.411596
 H        -1.970176         1.624813        -1.951113
