19
Iteration:  2347
 O        -0.568471         0.186525         0.259646
 C        -1.787713         0.850098         0.236230
 C        -3.201371         0.303230        -0.072224
 C        -3.348390         1.817773         0.024675
 C        -2.470743         1.855105         1.224090
 C        -1.865290         3.264969         1.355155
 C        -0.799746         3.469153         0.298294
 O        -1.274165         3.121131        -0.950006
 C        -2.051953         2.029617        -0.870967
 H        -0.425419        -0.123706         1.118095
 H        -3.349162        -0.274951        -1.047404
 H        -3.712035        -0.274936         0.762645
 H        -4.179692         2.461586        -0.002009
 H        -2.792226         1.443084         2.221188
 H        -2.643187         4.147326         1.383893
 H        -1.289670         3.392263         2.235543
 H        -0.524798         4.550130         0.189129
 H         0.184593         2.911041         0.454773
 H        -2.077513         1.494001        -1.916647
