19
Iteration:  3528
 O        -0.594085         0.046657         0.352499
 C        -1.709164         0.878693         0.201537
 C        -3.156504         0.265260        -0.172249
 C        -3.319917         1.849271        -0.028508
 C        -2.507180         1.895994         1.203427
 C        -1.819595         3.240845         1.579379
 C        -0.841276         3.628353         0.375819
 O        -1.332730         3.180885        -1.022378
 C        -2.012949         1.952877        -0.986646
 H        -0.910435        -0.591648         1.081161
 H        -3.244652        -0.195774        -1.141346
 H        -3.596347        -0.381647         0.627490
 H        -4.195668         2.595971        -0.240775
 H        -2.962513         1.298513         2.028501
 H        -2.608567         4.049715         1.777169
 H        -1.265282         3.147705         2.482993
 H        -0.741833         4.695854         0.111726
 H         0.180016         3.232269         0.637119
 H        -2.017768         1.700565        -2.021900
