19
Iteration:  2334
 O        -0.564748         0.296314         0.273574
 C        -1.783597         0.890043         0.232774
 C        -3.216350         0.276726        -0.025314
 C        -3.414453         1.851396        -0.069394
 C        -2.396142         1.866521         1.241736
 C        -1.802371         3.231944         1.421461
 C        -0.730573         3.503502         0.335349
 O        -1.272587         3.118824        -0.994630
 C        -2.127930         1.879371        -0.912693
 H        -0.450689        -0.324155         1.090585
 H        -3.241604        -0.155444        -1.109127
 H        -3.831974        -0.108338         0.857782
 H        -4.379868         2.228189        -0.164814
 H        -2.905669         1.322536         2.095921
 H        -2.708695         3.904108         1.360080
 H        -1.491647         3.283060         2.459196
 H        -0.296173         4.563849         0.302744
 H         0.032231         2.753575         0.684388
 H        -2.260105         1.630079        -2.031889
