19
Iteration:  4776charge 0 multiplicity 1
 O        -0.551542         0.319807         0.407692
 C        -1.759968         0.922209         0.130260
 C        -3.081832         0.315440        -0.346398
 C        -3.337793         1.840900        -0.148959
 C        -2.521428         1.725222         1.152742
 C        -1.988258         3.043701         1.529573
 C        -0.845700         3.481220         0.516170
 O        -1.243443         3.259043        -0.808617
 C        -1.999549         2.030537        -0.939642
 H        -0.742672        -0.696593         0.293549
 H        -3.147634        -0.025490        -1.404300
 H        -3.666213        -0.374680         0.302042
 H        -4.318442         2.292775        -0.124240
 H        -2.892564         1.091729         1.931154
 H        -2.859566         3.698004         1.673196
 H        -1.437254         3.146268         2.468610
 H        -0.404978         4.462940         0.590719
 H         0.016280         2.764689         0.678661
 H        -2.001353         1.810653        -2.011733
