19
Iteration:  3985charge 0 multiplicity 1
 O        -0.591098         0.179238         0.530511
 C        -1.803235         0.919979         0.192729
 C        -3.114467         0.214665        -0.207861
 C        -3.364614         1.849358        -0.011299
 C        -2.435284         1.833537         1.221837
 C        -1.763106         3.231628         1.309888
 C        -0.761517         3.392647         0.355487
 O        -1.357034         3.251523        -0.943446
 C        -2.108794         2.056470        -0.859994
 H        -0.554087        -0.487497        -0.110610
 H        -3.213518        -0.134604        -1.254376
 H        -3.514982        -0.488366         0.584385
 H        -4.375922         2.255188        -0.042081
 H        -2.912084         1.478687         2.121077
 H        -2.606361         3.814437         0.935627
 H        -1.415672         3.436631         2.382840
 H        -0.585264         4.412269         0.242797
 H         0.084014         2.849488         0.362192
 H        -2.116284         1.727744        -1.909064
