19
Iteration:  1868charge 0 multiplicity 1
 O        -0.556264         0.140290         0.417615
 C        -1.791419         0.857317         0.177272
 C        -3.201031         0.381148        -0.009181
 C        -3.411591         1.838324        -0.031853
 C        -2.418127         1.849119         1.197875
 C        -1.737023         3.185785         1.388079
 C        -0.793263         3.588263         0.234501
 O        -1.292063         3.133539        -0.997798
 C        -2.135430         1.914419        -0.917672
 H        -0.443882        -0.063559         1.314569
 H        -3.451249        -0.176507        -0.995113
 H        -3.748746        -0.182728         0.807817
 H        -4.474470         2.255359        -0.130742
 H        -2.737024         1.422613         2.194144
 H        -2.437048         3.994174         1.373164
 H        -1.119769         3.250512         2.385162
 H        -0.683488         4.755763         0.159513
 H         0.205797         3.095703         0.339686
 H        -2.273602         1.620355        -1.936209
