19
Iteration:   170
 O        -0.623260         0.241282         0.600424
 C        -1.868213         0.868776         0.253243
 C        -3.336768         0.272905         0.072821
 C        -3.436550         1.797460        -0.149484
 C        -2.501223         1.967728         1.092409
 C        -1.502866         3.184518         1.446551
 C        -0.728366         3.721793         0.151535
 O        -1.277690         2.976372        -1.023839
 C        -2.115220         1.850052        -0.902810
 H        -0.113337         0.444779        -0.192417
 H        -3.481323        -0.291601        -0.796663
 H        -3.805964        -0.202198         0.949827
 H        -4.423477         2.396054        -0.362012
 H        -2.811429         1.487905         1.935404
 H        -2.144329         3.955118         1.874726
 H        -0.868985         2.841088         2.223184
 H        -0.881698         4.729075        -0.018423
 H         0.345803         3.457894         0.287873
 H        -2.127697         1.463048        -1.987163
