19
Iteration:  3335charge 0 multiplicity 1
 O        -0.546215         0.202832         0.484325
 C        -1.740329         0.846040         0.181412
 C        -3.352020         0.271232        -0.063685
 C        -3.352973         1.851662        -0.102660
 C        -2.415908         1.819191         1.191917
 C        -1.766216         3.170470         1.478118
 C        -0.802114         3.580585         0.370871
 O        -1.317561         3.200227        -1.047560
 C        -2.079644         1.927772        -0.929631
 H        -0.030492        -0.010975        -0.330921
 H        -3.433663        -0.190795        -1.039777
 H        -3.762941        -0.286373         0.749166
 H        -4.288613         2.487560        -0.110860
 H        -2.809919         1.523284         2.150749
 H        -2.657734         3.790419         1.621533
 H        -1.151064         3.229407         2.460278
 H        -0.597078         4.612412         0.207061
 H         0.145130         2.968181         0.478193
 H        -2.077854         1.553943        -1.982967
