19
Iteration:  3176charge 0 multiplicity 1
 O        -0.548277         0.148875         0.351469
 C        -1.771218         0.888347         0.185835
 C        -3.171058         0.349357        -0.006900
 C        -3.371855         1.828890        -0.078141
 C        -2.489710         1.985074         1.120427
 C        -1.690038         3.218680         1.557477
 C        -0.805244         3.440987         0.295672
 O        -1.454594         3.093973        -0.918925
 C        -2.041957         1.888660        -1.006131
 H         0.213398         0.779148         0.386832
 H        -3.575992        -0.110891        -0.975993
 H        -3.738973        -0.047580         0.880877
 H        -4.208128         2.374513        -0.333991
 H        -2.925003         1.515835         1.975356
 H        -2.548875         3.918354         1.691175
 H        -1.179067         3.298646         2.472708
 H        -0.509403         4.515169         0.392206
 H         0.129648         2.847964         0.499216
 H        -2.117302         1.543633        -2.026591
