19
Iteration:  4367charge 0 multiplicity 1
 O        -0.610733         0.113268         0.513221
 C        -1.720680         0.901958         0.175715
 C        -3.108399         0.344790        -0.221796
 C        -3.344083         1.798863        -0.133849
 C        -2.469754         1.826873         1.222864
 C        -1.805533         3.234066         1.535305
 C        -0.849497         3.537772         0.392284
 O        -1.366928         3.246044        -0.956289
 C        -2.064883         1.995673        -0.978873
 H        -0.404436        -0.207768        -0.360958
 H        -3.100709        -0.259280        -1.194228
 H        -3.583427        -0.305823         0.557608
 H        -4.430091         1.973287        -0.250781
 H        -2.875801         1.123216         2.055861
 H        -2.516718         4.101496         1.729594
 H        -1.228529         2.972970         2.438644
 H        -0.310831         4.512242         0.268021
 H        -0.054554         2.807915         0.626107
 H        -2.095578         1.591226        -1.969894
