19
Iteration:  4174charge 0 multiplicity 1
 O        -0.559537         0.183684         0.526534
 C        -1.783704         0.839095         0.168250
 C        -3.240485         0.252894        -0.140363
 C        -3.380964         1.810101        -0.102910
 C        -2.512841         1.834280         1.204591
 C        -1.791423         3.187950         1.433020
 C        -0.760156         3.532113         0.341575
 O        -1.298207         3.205470        -0.927145
 C        -2.053811         1.964774        -0.963415
 H         0.162367         0.671359        -0.030505
 H        -3.541595        -0.163853        -1.131184
 H        -3.741116        -0.416646         0.558417
 H        -4.209454         2.531434        -0.188603
 H        -2.928309         1.463575         2.115161
 H        -2.496364         4.077407         1.489206
 H        -1.251284         3.073433         2.442716
 H        -0.548345         4.642673         0.230412
 H         0.211400         2.853682         0.416484
 H        -2.248312         1.709807        -2.069499
