19
Iteration:  1003charge 0 multiplicity 1
 O        -0.691787         0.006679         0.409620
 C        -1.808614         0.916656         0.287218
 C        -3.150693         0.287606        -0.092406
 C        -3.387281         1.853383        -0.058958
 C        -2.413611         1.968593         1.173314
 C        -1.564789         3.182347         1.444072
 C        -0.897986         3.709872         0.203530
 O        -1.327121         3.018101        -0.953045
 C        -2.106767         1.935334        -0.903367
 H        -0.142736         0.386395         1.130514
 H        -3.182591        -0.163569        -1.141625
 H        -3.760578        -0.268410         0.652271
 H        -4.265497         2.411827        -0.308544
 H        -3.047517         1.801091         2.056257
 H        -2.247405         4.019224         1.789290
 H        -0.726149         2.897303         2.297926
 H        -1.104087         4.849907         0.023544
 H         0.273855         3.639264         0.201417
 H        -2.137515         1.498985        -1.943915
