19
Iteration:  3139
 O        -0.706270         0.105728         0.495598
 C        -1.778751         0.881075         0.208669
 C        -3.146054         0.269005        -0.107465
 C        -3.382077         1.744624        -0.010583
 C        -2.516705         1.912885         1.194639
 C        -1.623827         3.112580         1.433441
 C        -0.823818         3.658640         0.243371
 O        -1.332793         3.232481        -1.004315
 C        -2.042574         1.944875        -0.870192
 H        -0.031959         0.391407        -0.236055
 H        -3.344142        -0.104871        -1.168553
 H        -3.546174        -0.380401         0.686788
 H        -4.441917         2.230374        -0.028131
 H        -2.959326         1.400912         2.168980
 H        -2.318841         3.936658         1.567199
 H        -1.015346         3.002188         2.360718
 H        -0.620682         4.704548         0.071202
 H         0.196429         3.266724         0.293279
 H        -2.128232         1.582916        -1.967712
