19
Iteration:  2175
 O        -0.545144         0.258421         0.250931
 C        -1.821938         0.848352         0.200278
 C        -3.259590         0.251918         0.009295
 C        -3.421828         1.854868         0.031035
 C        -2.466154         1.925802         1.197860
 C        -1.831429         3.282593         1.391792
 C        -0.809641         3.559944         0.305652
 O        -1.211091         3.068130        -0.951932
 C        -2.008178         1.891069        -0.948896
 H        -0.589890        -0.538879         0.917943
 H        -3.407426        -0.401698        -0.880877
 H        -3.612526        -0.284955         0.920106
 H        -4.289239         2.547690        -0.053154
 H        -2.772032         1.427994         2.106316
 H        -2.594357         3.984140         1.460249
 H        -1.270061         3.204005         2.376055
 H        -0.636150         4.628476         0.161597
 H         0.229309         3.102421         0.572124
 H        -2.123440         1.463570        -1.914110
