19
Iteration:  3878charge 0 multiplicity 1
 O        -0.673315         0.038410         0.453084
 C        -1.759589         0.881989         0.203037
 C        -3.230766         0.349895        -0.104678
 C        -3.319594         1.842248        -0.065894
 C        -2.417075         1.869493         1.184645
 C        -1.695413         3.137190         1.468179
 C        -1.028717         3.663334         0.258428
 O        -1.198921         3.136036        -1.003815
 C        -2.049881         1.940277        -0.959492
 H        -0.090904         0.618232         0.900289
 H        -3.329420        -0.220097        -1.042037
 H        -3.629467        -0.192898         0.779352
 H        -4.177112         2.486067        -0.032043
 H        -2.889409         1.513710         2.122425
 H        -2.423956         3.805874         1.888025
 H        -1.048867         2.942304         2.315015
 H        -1.109038         4.765822         0.164141
 H         0.123473         3.546499         0.578126
 H        -2.052568         1.448971        -1.975855
