19
Iteration:  3350charge 0 multiplicity 1
 O        -0.536961         0.229310         0.397849
 C        -1.815141         0.876339         0.168276
 C        -3.185055         0.306866        -0.061256
 C        -3.392819         1.810719        -0.081678
 C        -2.456240         1.898340         1.160881
 C        -1.792035         3.261721         1.530773
 C        -0.788999         3.494023         0.307899
 O        -1.355607         3.118541        -0.898651
 C        -2.013219         1.916093        -0.958594
 H        -0.411869        -0.351910        -0.436907
 H        -3.603217        -0.305348        -0.849498
 H        -3.582097         0.030411         0.906058
 H        -4.220645         2.347220        -0.372271
 H        -2.933539         1.237616         1.946580
 H        -2.450479         4.161233         1.438991
 H        -1.340543         3.136559         2.506433
 H        -0.549582         4.606524         0.337562
 H         0.178583         2.959665         0.484565
 H        -2.076640         1.573788        -2.034656
