19
Iteration:  4401charge 0 multiplicity 1
 O        -0.583786         0.284467         0.432432
 C        -1.764034         0.855510         0.140552
 C        -3.208745         0.265435        -0.273369
 C        -3.333474         1.829153        -0.081518
 C        -2.495351         1.750420         1.243447
 C        -1.824942         3.145186         1.413451
 C        -0.748582         3.590639         0.403219
 O        -1.322245         3.238797        -0.901965
 C        -2.021090         1.957235        -0.908574
 H        -0.678268        -0.558307         0.798681
 H        -3.239578        -0.185972        -1.314101
 H        -3.705708        -0.332495         0.529265
 H        -4.328678         2.257203        -0.102947
 H        -2.841753         1.169206         2.206538
 H        -2.724587         3.749736         1.560556
 H        -1.359571         3.217365         2.433997
 H        -0.525948         4.678309         0.294087
 H         0.154873         2.989370         0.511597
 H        -2.090631         1.658932        -1.948850
