19
Iteration:  3503
 O        -0.620073         0.124714         0.514002
 C        -1.731005         0.784788         0.235086
 C        -3.220428         0.395892        -0.193625
 C        -3.323326         1.863751        -0.093555
 C        -2.365767         1.763337         1.195734
 C        -1.775163         3.101933         1.418832
 C        -0.907053         3.714501         0.305376
 O        -1.321999         3.172139        -0.941147
 C        -2.043104         1.979987        -0.942622
 H        -0.678522        -0.871338         0.298361
 H        -3.513697         0.017377        -1.131682
 H        -3.638769        -0.130066         0.637100
 H        -4.209509         2.482033        -0.214158
 H        -2.718278         1.195648         2.062147
 H        -2.621211         3.784974         1.786271
 H        -1.052496         3.072682         2.287898
 H        -1.033447         4.834311         0.127983
 H         0.160655         3.547501         0.613108
 H        -1.824408         1.794447        -2.028286
