19
Iteration:  3525charge 0 multiplicity 1
 O        -0.576321         0.039471         0.376338
 C        -1.720840         0.879252         0.192466
 C        -3.178595         0.252137        -0.175734
 C        -3.323465         1.869774        -0.018026
 C        -2.496123         1.876036         1.198410
 C        -1.798223         3.235851         1.576576
 C        -0.861020         3.628569         0.374277
 O        -1.325300         3.187955        -1.031522
 C        -2.005815         1.969890        -0.978003
 H        -0.953758        -0.571578         0.977731
 H        -3.172433        -0.206313        -1.131967
 H        -3.647116        -0.314563         0.612966
 H        -4.142956         2.559639        -0.240338
 H        -2.978490         1.313517         2.003737
 H        -2.639499         4.003844         1.706333
 H        -1.237069         3.143237         2.536622
 H        -0.820106         4.710785         0.094892
 H         0.135547         3.252321         0.659543
 H        -2.098583         1.659912        -2.077349
