19
Iteration:  1012charge 0 multiplicity 1
 O        -0.658147         0.053661         0.471935
 C        -1.842867         0.824050         0.214174
 C        -3.214479         0.313240        -0.035251
 C        -3.420927         1.910340        -0.111066
 C        -2.428498         1.922728         1.192817
 C        -1.535735         3.160779         1.482181
 C        -0.897360         3.719131         0.208553
 O        -1.314517         3.091407        -1.039019
 C        -2.104263         1.900338        -0.920705
 H        -0.185228         0.434739         1.250932
 H        -3.122264        -0.111449        -1.074001
 H        -3.507604        -0.455285         0.683933
 H        -4.442295         2.306988        -0.271932
 H        -2.963376         1.687074         2.137471
 H        -2.149758         3.868495         2.110909
 H        -0.623548         2.845745         2.223595
 H        -1.028740         4.834862         0.045343
 H         0.205073         3.503168         0.294004
 H        -1.893503         1.477857        -1.997077
