19
Iteration:  4221
 O        -0.556474         0.178355         0.420222
 C        -1.755877         0.874403         0.224777
 C        -3.121139         0.269513        -0.140672
 C        -3.342356         1.794357        -0.111499
 C        -2.589895         1.906459         1.211780
 C        -1.788696         3.193052         1.519212
 C        -0.796585         3.535851         0.311195
 O        -1.317129         3.245147        -1.020601
 C        -2.042067         2.006471        -0.891389
 H        -0.853196        -0.780037         0.372270
 H        -3.235832        -0.379597        -1.021691
 H        -3.636074        -0.248320         0.716272
 H        -4.385746         2.086109        -0.317907
 H        -3.158913         1.431505         2.011919
 H        -2.437702         4.070735         1.819346
 H        -1.187406         2.888295         2.371440
 H        -0.462892         4.585459         0.443573
 H         0.030337         2.778849         0.351587
 H        -2.045774         1.571207        -1.919752
