19
Iteration:  3343charge 0 multiplicity 1
 O        -0.523141         0.212817         0.455494
 C        -1.800022         0.849624         0.157386
 C        -3.295086         0.285594        -0.068442
 C        -3.356114         1.825584        -0.114970
 C        -2.402291         1.896231         1.176791
 C        -1.794319         3.198290         1.531399
 C        -0.779004         3.549862         0.325290
 O        -1.338040         3.154344        -0.995764
 C        -2.041612         1.942918        -0.927563
 H        -0.240225        -0.154152        -0.459679
 H        -3.641609        -0.343570        -0.955425
 H        -3.681131        -0.265602         0.924052
 H        -4.377291         2.435588        -0.191999
 H        -2.882862         1.272967         1.947633
 H        -2.555065         3.987234         1.599108
 H        -1.345990         3.272380         2.525448
 H        -0.523939         4.614126         0.447623
 H         0.122622         3.003803         0.421601
 H        -2.065543         1.457111        -1.866941
