19
Iteration:   122charge 0 multiplicity 1
 O        -0.660434         0.213070         0.757950
 C        -1.767354         0.884912         0.205575
 C        -3.187984         0.366045        -0.044682
 C        -3.397031         1.959805        -0.059395
 C        -2.425678         1.950405         1.210401
 C        -1.475948         3.055987         1.470965
 C        -0.994933         3.622790         0.092410
 O        -1.275383         3.013987        -1.198461
 C        -2.121256         1.896756        -0.959828
 H        -0.594061        -0.716953         0.468393
 H        -3.419500        -0.287575        -0.956626
 H        -3.587080        -0.097066         0.824489
 H        -4.315478         2.514597        -0.361613
 H        -2.912328         1.645352         2.178277
 H        -1.972670         3.810157         2.086216
 H        -0.683680         2.589767         2.072740
 H        -1.537143         4.615860         0.151996
 H         0.121742         3.693932         0.223494
 H        -2.277063         1.488400        -1.919902
