19
Iteration:  4789
 O        -0.510136         0.262455         0.389028
 C        -1.711780         0.917201         0.030593
 C        -3.085832         0.345996        -0.390237
 C        -3.459277         1.818744        -0.045890
 C        -2.563783         1.703107         1.145798
 C        -1.955973         3.111620         1.562075
 C        -0.870294         3.438359         0.551728
 O        -1.218868         3.210214        -0.872928
 C        -1.952531         2.133294        -0.914554
 H        -0.689472        -0.503400         0.866243
 H        -3.148428        -0.093655        -1.408245
 H        -3.394974        -0.335382         0.426207
 H        -4.374783         2.368535        -0.303249
 H        -2.941085         1.168114         2.035961
 H        -2.694440         3.925373         1.422834
 H        -1.669365         2.909690         2.601962
 H        -0.790363         4.541889         0.579371
 H         0.136886         2.823596         0.875856
 H        -2.161852         1.751052        -1.927555
