19
Iteration:  4369charge 0 multiplicity 1
 O        -0.602175         0.119213         0.524348
 C        -1.711808         0.889446         0.169325
 C        -3.101992         0.355216        -0.233118
 C        -3.379067         1.805482        -0.131532
 C        -2.467813         1.838510         1.233437
 C        -1.799619         3.226456         1.515458
 C        -0.836468         3.543904         0.397682
 O        -1.359659         3.234722        -0.946759
 C        -2.082451         1.997202        -0.975230
 H        -0.375079        -0.356822        -0.376872
 H        -3.058069        -0.183907        -1.240961
 H        -3.575068        -0.348409         0.492601
 H        -4.451192         1.975505        -0.230301
 H        -2.861537         1.117526         2.094791
 H        -2.596373         4.013762         1.747148
 H        -1.236042         3.040130         2.495454
 H        -0.351600         4.531797         0.208653
 H        -0.033834         2.807689         0.577521
 H        -2.117848         1.604263        -2.009727
