19
Iteration:  1249charge 0 multiplicity 1
 O        -0.696986         0.065121         0.534877
 C        -1.784155         0.903136         0.240811
 C        -3.105314         0.257214        -0.076787
 C        -3.296697         1.836904        -0.116754
 C        -2.440794         1.942632         1.193399
 C        -1.638611         3.206240         1.435697
 C        -0.742206         3.646488         0.190595
 O        -1.475964         3.220907        -0.985802
 C        -2.087316         1.904477        -0.921390
 H        -0.926984        -0.823607         0.419257
 H        -3.125306        -0.134446        -1.099718
 H        -3.532898        -0.315523         0.739189
 H        -4.240468         2.339075        -0.262233
 H        -2.942485         1.715189         2.119574
 H        -2.414734         3.842758         1.783041
 H        -0.998892         3.068938         2.433728
 H        -0.534927         4.657923         0.120293
 H         0.134486         2.901362         0.182442
 H        -2.108962         1.540721        -1.861768
