19
Iteration:  2046charge 0 multiplicity 1
 O        -0.614390         0.184937         0.365388
 C        -1.821269         0.820080         0.280879
 C        -3.225536         0.361283        -0.068814
 C        -3.315189         1.855110        -0.019198
 C        -2.434059         1.907504         1.203884
 C        -1.704972         3.145437         1.411563
 C        -0.915882         3.676496         0.262263
 O        -1.264510         3.071722        -1.052911
 C        -2.021226         1.868190        -0.897951
 H        -0.478324        -0.321752         1.116299
 H        -3.386603        -0.160488        -1.002750
 H        -3.812921        -0.110092         0.715905
 H        -4.220678         2.493796        -0.134607
 H        -2.632375         1.528938         2.206484
 H        -2.475451         3.757434         1.815897
 H        -0.982451         3.061275         2.254752
 H        -1.148063         4.663333         0.074958
 H         0.133386         3.645805         0.418588
 H        -2.267541         1.450932        -1.841738
