19
Iteration:  2917charge 0 multiplicity 1
 O        -0.714515         0.014699         0.396590
 C        -1.741512         0.863010         0.115400
 C        -3.096498         0.274264        -0.132972
 C        -3.380609         1.791299         0.001178
 C        -2.405568         1.890937         1.207185
 C        -1.724018         3.321211         1.470329
 C        -0.791318         3.599630         0.280741
 O        -1.363830         3.171912        -0.959357
 C        -2.073089         1.955122        -0.930345
 H        -0.241761         0.470695         1.175057
 H        -3.236084        -0.190140        -1.108726
 H        -3.544925        -0.295771         0.751402
 H        -4.404105         2.135007        -0.032796
 H        -2.715915         1.412455         2.150817
 H        -2.446425         4.056630         1.608183
 H        -1.275702         3.185472         2.471539
 H        -0.793730         4.667210         0.053231
 H         0.225447         3.173940         0.461650
 H        -2.359292         1.774243        -1.967073
