19
Iteration:   609
 O        -0.611732         0.072017         0.364387
 C        -1.862757         0.878304         0.307566
 C        -3.268119         0.331923        -0.015900
 C        -3.441940         1.911254         0.024451
 C        -2.513516         1.961294         1.272300
 C        -1.733762         3.317516         1.421735
 C        -0.834850         3.713439         0.121344
 O        -1.131653         2.881623        -1.042755
 C        -2.007551         1.809503        -0.835694
 H         0.043410         0.574923        -0.165952
 H        -3.361187         0.054209        -1.091861
 H        -3.667354        -0.437691         0.645468
 H        -4.295022         2.558985         0.062495
 H        -2.867908         1.483811         2.234560
 H        -2.553927         4.155496         1.609445
 H        -1.053241         3.361869         2.287960
 H        -1.041523         4.742378        -0.144706
 H         0.196166         3.604607         0.389614
 H        -2.148018         1.275173        -1.816324
