19
Iteration:  3992charge 0 multiplicity 1
 O        -0.595421         0.221943         0.513292
 C        -1.801893         0.902715         0.267804
 C        -3.110448         0.231699        -0.227583
 C        -3.301882         1.811729         0.011960
 C        -2.505633         1.841369         1.234174
 C        -1.792662         3.192989         1.338146
 C        -0.748348         3.428121         0.287319
 O        -1.348382         3.215037        -0.949441
 C        -2.141277         2.093941        -0.915050
 H        -0.670668        -0.561214        -0.003433
 H        -2.899711        -0.113612        -1.222087
 H        -3.651086        -0.403838         0.461066
 H        -4.316884         2.288647        -0.028626
 H        -2.755080         1.289532         2.174417
 H        -2.574936         4.012793         1.177822
 H        -1.383420         3.311648         2.328372
 H        -0.365350         4.499666         0.354150
 H         0.173191         2.672194         0.394076
 H        -2.225710         1.718451        -1.906599
