19
Iteration:   113
 O        -0.675139         0.152963         0.752551
 C        -1.836973         0.871170         0.216194
 C        -3.249681         0.318913        -0.014609
 C        -3.290625         1.893401        -0.043830
 C        -2.437685         1.945236         1.240776
 C        -1.473029         3.095628         1.428194
 C        -1.002561         3.732958         0.128951
 O        -1.257915         3.031027        -1.143843
 C        -2.092351         1.906250        -1.062339
 H        -0.674431        -0.785214         0.454117
 H        -3.442528        -0.173155        -0.988830
 H        -3.623435        -0.207123         0.801950
 H        -4.374984         2.417062        -0.031373
 H        -2.854675         1.470305         2.070138
 H        -1.917472         3.950099         1.924102
 H        -0.626016         2.840817         1.998798
 H        -1.405435         4.700014        -0.069658
 H         0.131844         3.950023         0.169927
 H        -2.282402         1.457234        -2.079559
