19
Iteration:  3147
 O        -0.681686         0.108360         0.443983
 C        -1.824872         0.908088         0.247002
 C        -3.125987         0.217302        -0.072182
 C        -3.395841         1.768093        -0.032456
 C        -2.532652         1.933148         1.190078
 C        -1.657396         3.147781         1.453643
 C        -0.781846         3.610882         0.238678
 O        -1.359796         3.217228        -1.016615
 C        -2.011161         1.961828        -0.883674
 H         0.027558         0.511997        -0.191856
 H        -3.312250        -0.219320        -0.986825
 H        -3.666502        -0.261952         0.726192
 H        -4.242896         2.448861        -0.366758
 H        -2.797992         1.372545         2.120038
 H        -2.461871         3.807328         1.884039
 H        -0.876621         2.970197         2.295431
 H        -0.750856         4.709787         0.240770
 H         0.146610         3.031813         0.351412
 H        -2.046931         1.580225        -1.896572
