19
Iteration:  4379
 O        -0.562201         0.146025         0.525792
 C        -1.744988         0.883130         0.161078
 C        -3.064087         0.302815        -0.276119
 C        -3.462264         1.813642        -0.078845
 C        -2.448543         1.850998         1.185106
 C        -1.803831         3.180092         1.499688
 C        -0.792595         3.526657         0.365555
 O        -1.353247         3.186601        -0.912062
 C        -2.101308         2.037112        -0.931676
 H        -0.369384        -0.737627         0.011775
 H        -3.109496         0.102586        -1.393020
 H        -3.593660        -0.466992         0.327753
 H        -4.396529         2.390235        -0.226983
 H        -2.838455         1.420297         2.207990
 H        -2.726827         3.847756         1.564176
 H        -1.265386         3.342815         2.458526
 H        -0.605280         4.633208         0.349778
 H         0.157845         2.971170         0.478831
 H        -2.188198         1.772413        -1.983676
