19
Iteration:  1348
 O        -0.514273         0.284138         0.376811
 C        -1.801438         0.937246         0.196056
 C        -3.230040         0.292931        -0.014285
 C        -3.351050         1.889894        -0.059230
 C        -2.472609         1.921148         1.213670
 C        -1.760508         3.232504         1.431117
 C        -0.736676         3.411436         0.252697
 O        -1.369302         3.059315        -0.958949
 C        -2.077943         1.908870        -0.972180
 H        -0.681890        -0.470684         0.980233
 H        -3.617772        -0.270938        -0.886176
 H        -3.635757         0.003365         0.955858
 H        -4.373933         2.335654        -0.158213
 H        -3.081929         1.519165         1.998378
 H        -2.397935         4.083036         1.452312
 H        -1.243307         3.305666         2.524976
 H        -0.238952         4.336587         0.092640
 H         0.142394         2.675570         0.436729
 H        -2.161505         1.591525        -1.958863
