19
Iteration:  3700charge 0 multiplicity 1
 O        -0.597699         0.030159         0.535127
 C        -1.799598         0.849334         0.193530
 C        -3.179533         0.253108        -0.247892
 C        -3.296510         1.823543        -0.003308
 C        -2.427776         1.833661         1.287393
 C        -1.789334         3.299030         1.392731
 C        -0.816373         3.612374         0.251775
 O        -1.322252         3.164403        -0.913600
 C        -2.094534         2.023748        -0.934994
 H        -0.183205        -0.068174        -0.316367
 H        -3.379153        -0.070746        -1.327641
 H        -3.805144        -0.501136         0.310280
 H        -4.233994         2.498246        -0.062235
 H        -2.919545         1.458018         2.190372
 H        -2.566433         3.972678         1.467527
 H        -1.278540         3.460639         2.356140
 H        -0.784332         4.720816         0.462629
 H         0.207015         3.330393         0.361718
 H        -2.086883         1.470837        -1.943198
