19
Iteration:  4269
 O        -0.473443         0.116060         0.389685
 C        -1.777139         0.773663         0.162691
 C        -3.258681         0.299138        -0.176841
 C        -3.387694         1.843405        -0.076791
 C        -2.451369         1.853807         1.199182
 C        -1.816829         3.281796         1.456408
 C        -0.795166         3.537022         0.409610
 O        -1.360484         3.226096        -0.945218
 C        -2.033443         1.943244        -0.954964
 H        -0.319097         0.289501         1.291163
 H        -3.522607        -0.168592        -1.171075
 H        -3.756566        -0.328504         0.601533
 H        -4.233063         2.528285        -0.303344
 H        -2.867629         1.212380         2.092448
 H        -2.723768         3.883493         1.436791
 H        -1.226616         3.277262         2.376585
 H        -0.414379         4.590881         0.411064
 H         0.115347         2.949331         0.603615
 H        -2.057166         1.633755        -1.983009
