19
Iteration:   923charge 0 multiplicity 1
 O        -0.596623         0.112363         0.422214
 C        -1.779811         0.888337         0.306797
 C        -3.220565         0.239092        -0.048044
 C        -3.398522         1.796094        -0.036452
 C        -2.443987         1.972733         1.231125
 C        -1.786946         3.368975         1.343355
 C        -0.720244         3.483050         0.282012
 O        -1.300190         3.138317        -0.991988
 C        -2.104414         1.943331        -0.899020
 H        -0.581348        -0.102036        -0.532689
 H        -3.079915        -0.235114        -1.028055
 H        -3.913578        -0.350713         0.564408
 H        -4.446762         2.176318        -0.029874
 H        -2.844773         1.544847         2.124219
 H        -2.304004         4.333703         1.397095
 H        -1.172040         3.331783         2.364195
 H        -0.410383         4.531103         0.205330
 H         0.178023         2.782721         0.501635
 H        -2.217010         1.406154        -1.896726
