19
Iteration:  1674charge 0 multiplicity 1
 O        -0.586888         0.076789         0.377842
 C        -1.764174         0.858434         0.254069
 C        -3.175127         0.319648        -0.092270
 C        -3.273896         1.868834         0.016341
 C        -2.439922         1.868971         1.282077
 C        -1.794894         3.291633         1.342144
 C        -0.833198         3.563390         0.261440
 O        -1.389703         3.162899        -1.001155
 C        -1.988644         1.886879        -0.853387
 H        -1.006608        -0.759243         0.359467
 H        -3.297614        -0.155620        -1.065450
 H        -3.808756        -0.111219         0.660268
 H        -4.121318         2.647601        -0.144153
 H        -2.822474         1.482121         2.236817
 H        -2.657133         4.137833         1.282514
 H        -1.344320         3.349063         2.277273
 H        -0.658864         4.595650         0.114038
 H         0.180687         3.157665         0.403187
 H        -2.189132         1.652441        -1.969675
