19
Iteration:  1133
 O        -0.619627         0.063787         0.296492
 C        -1.760959         0.889005         0.161245
 C        -3.216712         0.319435         0.021047
 C        -3.389098         1.848250         0.002749
 C        -2.476004         1.962026         1.231506
 C        -1.882220         3.356676         1.402434
 C        -0.716528         3.508859         0.327281
 O        -1.259965         3.051319        -0.987172
 C        -2.056463         1.895860        -0.878661
 H         0.123262         0.518605        -0.071184
 H        -3.362611        -0.247473        -0.924684
 H        -3.577264        -0.176658         0.926851
 H        -4.329951         2.374693         0.018589
 H        -2.708850         1.420283         2.177696
 H        -2.558265         4.228775         1.332145
 H        -1.572518         3.460465         2.382183
 H        -0.320168         4.532746         0.080881
 H         0.008293         2.837625         0.603351
 H        -2.248803         1.567161        -1.983665
