19
Iteration:  2281charge 0 multiplicity 1
 O        -0.571253         0.281069         0.431426
 C        -1.798978         0.945976         0.246264
 C        -3.154868         0.238650        -0.077147
 C        -3.427569         1.807568        -0.138119
 C        -2.523587         1.895480         1.273598
 C        -1.616314         3.183457         1.502249
 C        -0.726161         3.377867         0.264124
 O        -1.455466         3.227445        -1.060266
 C        -2.063317         1.961864        -0.918403
 H        -0.592297        -0.654713         0.869445
 H        -3.250636        -0.274595        -1.088037
 H        -3.682554        -0.264075         0.751450
 H        -4.248644         2.432679        -0.260426
 H        -3.091537         1.326958         2.062479
 H        -2.283354         4.171792         1.571488
 H        -1.138753         3.079234         2.434429
 H        -0.600660         4.493140         0.228692
 H         0.263605         2.847492         0.356854
 H        -1.817194         1.513595        -1.995053
