19
Iteration:  3459charge 0 multiplicity 1
 O        -0.645015         0.044527         0.411254
 C        -1.804435         0.950403         0.254615
 C        -3.130024         0.301291        -0.104813
 C        -3.339925         1.843403        -0.162149
 C        -2.560596         1.896433         1.168065
 C        -1.704403         3.096344         1.526671
 C        -0.846358         3.681998         0.313052
 O        -1.343508         3.122773        -0.950032
 C        -2.033281         1.926032        -0.934776
 H         0.119342         0.721067         0.347087
 H        -2.987934        -0.253848        -0.988054
 H        -3.729727        -0.169106         0.621338
 H        -4.285106         2.366975        -0.252271
 H        -3.116670         1.438132         1.987036
 H        -2.181496         3.949985         2.121746
 H        -0.985046         2.732409         2.326219
 H        -0.831964         4.822170         0.254442
 H         0.262444         3.424277         0.236942
 H        -2.022503         1.659083        -2.057647
