19
Iteration:  1548charge 0 multiplicity 1
 O        -0.618721         0.185730         0.416249
 C        -1.811129         0.864015         0.190197
 C        -3.165060         0.232792        -0.065347
 C        -3.413772         1.819534        -0.092270
 C        -2.549200         1.974501         1.166742
 C        -1.640535         3.232302         1.489766
 C        -0.727820         3.496986         0.298493
 O        -1.399701         3.189522        -1.017578
 C        -2.039641         1.923872        -0.926264
 H        -0.583321        -0.126659         1.329796
 H        -3.359546        -0.401038        -0.945591
 H        -3.490868        -0.228648         0.888128
 H        -4.366201         2.193393        -0.361948
 H        -2.959974         1.500534         2.056144
 H        -2.222985         4.077061         1.739188
 H        -0.785193         3.111231         2.314325
 H        -0.412175         4.593861         0.275015
 H         0.080027         2.787447         0.249840
 H        -2.040197         1.693129        -1.962928
