19
Iteration:  2911
 O        -0.694794         0.012615         0.368876
 C        -1.736578         0.888092         0.178289
 C        -3.125648         0.286617        -0.101753
 C        -3.445179         1.737419        -0.021340
 C        -2.414629         1.886317         1.212016
 C        -1.729860         3.294826         1.479860
 C        -0.796576         3.605706         0.241710
 O        -1.322681         3.174874        -0.959540
 C        -2.084812         1.990167        -0.919927
 H        -0.158183         0.520007         1.041044
 H        -3.139203        -0.290141        -1.063950
 H        -3.507139        -0.394126         0.639776
 H        -4.368565         2.361405        -0.079783
 H        -2.644200         1.493356         2.223617
 H        -2.601720         4.073010         1.537897
 H        -1.263449         3.185575         2.458872
 H        -0.626426         4.699833         0.208695
 H         0.166960         3.034408         0.370445
 H        -2.178858         1.767897        -2.013732
