19
Iteration:  4841
 O        -0.521788         0.053994         0.266733
 C        -1.665238         0.903342         0.125120
 C        -3.148450         0.320109        -0.236632
 C        -3.310441         1.852068        -0.295703
 C        -2.630513         1.834672         1.161890
 C        -1.911220         3.091945         1.631687
 C        -0.878226         3.515791         0.545309
 O        -1.368926         3.317235        -0.744698
 C        -1.884509         1.998859        -0.979818
 H         0.202637         0.507818         0.718440
 H        -3.192528        -0.137905        -1.272916
 H        -3.797237        -0.339197         0.397365
 H        -4.273055         2.282706        -0.624064
 H        -3.275549         1.421299         1.931377
 H        -2.704661         3.852650         1.707111
 H        -1.608405         2.850376         2.674952
 H        -0.676066         4.598847         0.588014
 H        -0.008853         3.008629         0.781625
 H        -1.863434         1.543246        -1.973770
