19
Iteration:  4797
 O        -0.485761         0.223838         0.344395
 C        -1.711461         0.913022         0.079835
 C        -3.113381         0.339196        -0.411324
 C        -3.453408         1.756313        -0.070551
 C        -2.592679         1.746137         1.154168
 C        -1.948142         3.130725         1.569890
 C        -0.856873         3.458857         0.612481
 O        -1.167924         3.231929        -0.849383
 C        -2.046742         2.092179        -0.960982
 H        -0.691119        -0.276049         1.123721
 H        -3.264874        -0.110977        -1.416021
 H        -3.355980        -0.460159         0.330278
 H        -4.306860         2.364664        -0.321209
 H        -2.917456         1.194393         2.012734
 H        -2.675666         3.950012         1.539858
 H        -1.530753         3.213202         2.591576
 H        -0.728600         4.518403         0.621520
 H         0.067347         3.048072         0.623220
 H        -2.051230         1.762581        -2.006736
