19
Iteration:  4958
 O        -0.535245         0.263986         0.284980
 C        -1.706329         0.829132         0.154633
 C        -3.093977         0.198838        -0.411665
 C        -3.332621         1.777990        -0.261652
 C        -2.626767         1.830860         1.149374
 C        -1.929297         3.124871         1.605499
 C        -0.761025         3.522820         0.640265
 O        -1.316385         3.327326        -0.756792
 C        -2.018252         2.035586        -0.927546
 H        -0.510496        -0.531238         0.755522
 H        -3.260070        -0.311484        -1.314885
 H        -3.688982        -0.360000         0.265126
 H        -4.332692         2.063179        -0.577689
 H        -3.243261         1.227214         1.822244
 H        -2.592842         3.997228         1.656755
 H        -1.544172         3.070950         2.590387
 H        -0.378676         4.508662         0.693073
 H         0.087621         2.821869         0.948061
 H        -1.881245         1.952404        -1.973018
