19
Iteration:  3357charge 0 multiplicity 1
 O        -0.573140         0.238890         0.349322
 C        -1.741812         0.906639         0.160852
 C        -3.147745         0.308696        -0.024805
 C        -3.385255         1.822325        -0.097388
 C        -2.527185         1.902365         1.166831
 C        -1.778897         3.273547         1.465639
 C        -0.782500         3.464812         0.371002
 O        -1.360614         3.117015        -0.859129
 C        -2.042890         1.878578        -0.962397
 H        -0.479864        -0.463197        -0.306745
 H        -3.332390        -0.289753        -0.929679
 H        -3.593777        -0.104221         0.874832
 H        -4.311030         2.370040        -0.401058
 H        -2.867019         1.541630         2.126421
 H        -2.518598         4.086808         1.520351
 H        -1.217178         3.167754         2.473646
 H        -0.577316         4.467611         0.063093
 H         0.178758         2.880151         0.549908
 H        -2.061412         1.696168        -2.061013
