19
Iteration:  3216charge 0 multiplicity 1
 O        -0.631605         0.115919         0.324379
 C        -1.765421         0.903220         0.234897
 C        -3.099627         0.243757        -0.101746
 C        -3.462905         1.841274         0.087346
 C        -2.432104         1.884842         1.282679
 C        -1.828665         3.243068         1.379851
 C        -0.684777         3.449824         0.306792
 O        -1.304593         3.156452        -1.013971
 C        -2.139700         2.068827        -0.920420
 H         0.006966         0.406389         1.018815
 H        -3.151422        -0.152605        -1.169634
 H        -3.584053        -0.461868         0.571927
 H        -4.538961         2.056530        -0.244737
 H        -2.775115         1.362062         2.286091
 H        -2.476992         4.101694         1.185467
 H        -1.445132         3.297394         2.465769
 H        -0.630210         4.502308         0.119487
 H         0.267177         2.931259         0.290698
 H        -2.330900         1.708110        -2.020437
