19
Iteration:  2663charge 0 multiplicity 1
 O        -0.588422         0.241694         0.301703
 C        -1.731230         0.963806         0.238288
 C        -3.121930         0.313244        -0.073456
 C        -3.397659         1.758448        -0.090824
 C        -2.531191         1.908398         1.233648
 C        -1.779628         3.264523         1.457851
 C        -0.696555         3.422517         0.381881
 O        -1.401795         3.170787        -0.988795
 C        -2.082268         1.928970        -0.946114
 H        -0.801166        -0.688297         0.616089
 H        -3.170843        -0.316369        -1.034013
 H        -3.529854        -0.337750         0.713835
 H        -4.304899         2.327695        -0.213338
 H        -3.007519         1.583109         2.127429
 H        -2.419863         4.134110         1.582765
 H        -1.296760         3.221030         2.515962
 H        -0.310051         4.464786         0.231797
 H         0.019863         2.641083         0.600773
 H        -1.846849         1.390442        -1.865735
