19
Iteration:  2853
 O        -0.559916         0.268085         0.368341
 C        -1.769682         0.834491         0.244829
 C        -3.210160         0.298274        -0.075107
 C        -3.451272         1.766516        -0.087630
 C        -2.446620         1.919359         1.145967
 C        -1.805909         3.282341         1.458402
 C        -0.735177         3.463203         0.406180
 O        -1.300693         3.119603        -0.952022
 C        -2.110441         1.920268        -0.945840
 H        -0.194733         0.363117        -0.516942
 H        -3.286188        -0.364479        -0.946004
 H        -3.747209        -0.051787         0.886175
 H        -4.427497         2.163230        -0.062965
 H        -2.749467         1.544260         2.059797
 H        -2.413840         4.197851         1.531142
 H        -1.310609         3.135435         2.408664
 H        -0.319632         4.424242         0.410033
 H         0.187502         2.797553         0.479267
 H        -2.213832         1.503106        -1.965980
