19
Iteration:   549
 O        -0.655265         0.129386         0.550180
 C        -1.791561         0.842614         0.226516
 C        -3.245278         0.337085         0.081289
 C        -3.373386         1.880395        -0.070736
 C        -2.515675         1.960414         1.228408
 C        -1.692855         3.266232         1.408118
 C        -0.827858         3.641475         0.248950
 O        -1.219276         3.024277        -1.114178
 C        -2.055977         1.858552        -0.980795
 H        -0.231949        -0.048537        -0.262634
 H        -3.406443        -0.332799        -0.784037
 H        -3.747039        -0.084291         1.011995
 H        -4.361511         2.446848        -0.219842
 H        -2.736877         1.322032         2.064482
 H        -2.377013         3.982749         1.787678
 H        -0.935190         3.101226         2.193333
 H        -0.932960         4.714137        -0.050198
 H         0.267216         3.178829         0.304795
 H        -2.110382         1.544697        -2.014628
