19
Iteration:  3736charge 0 multiplicity 1
 O        -0.576011         0.244650         0.405228
 C        -1.804329         0.933780         0.159985
 C        -3.186620         0.238453         0.012228
 C        -3.335215         1.838127        -0.173760
 C        -2.535685         1.917550         1.228792
 C        -1.806573         3.159181         1.503052
 C        -0.815015         3.439883         0.385943
 O        -1.279855         3.136971        -0.963397
 C        -2.072620         1.938742        -1.014403
 H         0.076105         0.470716        -0.228224
 H        -3.413392        -0.302270        -0.871218
 H        -3.637416        -0.139558         0.965645
 H        -4.263427         2.434983        -0.268976
 H        -3.094368         1.459491         2.042030
 H        -2.424157         4.101214         1.579123
 H        -1.193790         3.106183         2.387981
 H        -0.506773         4.458502         0.185613
 H         0.105730         2.878670         0.670787
 H        -1.879976         1.564158        -2.048737
