19
Iteration:  3232
 O        -0.620851         0.065291         0.340317
 C        -1.748559         0.913727         0.168978
 C        -3.117905         0.312378        -0.145048
 C        -3.397605         1.799826         0.063660
 C        -2.441506         1.893355         1.214099
 C        -1.769607         3.290330         1.433780
 C        -0.824114         3.528206         0.284879
 O        -1.346605         3.125157        -0.977674
 C        -2.112187         1.949559        -0.883405
 H        -0.145477         0.467121         1.025005
 H        -3.337311        -0.066521        -1.210329
 H        -3.489696        -0.362324         0.744402
 H        -4.224703         2.486519        -0.009135
 H        -2.833718         1.455141         2.130333
 H        -2.611673         4.011945         1.488612
 H        -1.091502         3.444171         2.240095
 H        -0.286033         4.527399         0.285230
 H         0.064209         2.815869         0.442348
 H        -2.227025         1.645951        -1.883860
