19
Iteration:  2543
 O        -0.589946         0.134712         0.334981
 C        -1.776510         0.887577         0.218227
 C        -3.204218         0.345157        -0.075842
 C        -3.421274         1.833644        -0.035967
 C        -2.333757         1.860353         1.196855
 C        -1.798436         3.203116         1.465733
 C        -0.858231         3.598558         0.291408
 O        -1.277915         3.111534        -0.972019
 C        -2.066081         1.939267        -0.926870
 H        -0.612699        -0.414059         1.103117
 H        -3.312171        -0.197429        -1.106408
 H        -3.719095        -0.203414         0.750408
 H        -4.183737         2.444670        -0.299276
 H        -2.644495         1.345528         2.137087
 H        -2.549716         3.993938         1.546262
 H        -1.288834         3.253920         2.480056
 H        -0.905166         4.711616         0.288979
 H         0.153976         3.208377         0.386874
 H        -2.141534         1.631275        -1.998994
