19
Iteration:   274charge 0 multiplicity 1
 O        -0.603031         0.156274         0.482547
 C        -1.766146         0.894400         0.291623
 C        -3.224125         0.351521         0.044196
 C        -3.355408         1.938668        -0.029264
 C        -2.496003         1.961661         1.215061
 C        -1.707242         3.229994         1.401513
 C        -0.786104         3.502891         0.130962
 O        -1.361280         3.009934        -1.092166
 C        -2.087695         1.821728        -0.921440
 H         0.069863         0.709299         0.840789
 H        -3.378014        -0.172730        -0.996005
 H        -3.749093        -0.149938         0.861079
 H        -4.062142         2.618328        -0.427880
 H        -3.010776         1.525138         2.160259
 H        -2.443106         4.027311         1.748007
 H        -0.976599         3.007722         2.307170
 H        -0.462022         4.616994        -0.061342
 H         0.149744         3.011664         0.357215
 H        -2.236771         1.455610        -1.925752
