19
Iteration:  3507
 O        -0.591729         0.098182         0.502523
 C        -1.760828         0.795217         0.199078
 C        -3.200406         0.400791        -0.185779
 C        -3.317269         1.871892        -0.120273
 C        -2.348858         1.783004         1.211033
 C        -1.776964         3.101649         1.427685
 C        -0.942868         3.690233         0.310241
 O        -1.301280         3.181587        -0.952583
 C        -2.050890         1.986262        -0.911812
 H        -0.725900        -0.825390         0.484122
 H        -3.484927        -0.064795        -1.163113
 H        -3.727086        -0.162172         0.662198
 H        -4.332505         2.464235        -0.208886
 H        -2.744821         1.265379         2.132924
 H        -2.598432         3.782062         1.743839
 H        -1.127409         3.200061         2.257970
 H        -0.987571         4.803448         0.287501
 H         0.151617         3.476387         0.503244
 H        -1.947275         1.763335        -1.956265
