19
Iteration:  4122
 O        -0.585436         0.052985         0.313422
 C        -1.781591         0.831196         0.131269
 C        -3.139764         0.250952        -0.081430
 C        -3.386367         1.834471        -0.100213
 C        -2.472179         1.938226         1.124331
 C        -1.783902         3.295641         1.453796
 C        -0.811113         3.552027         0.398127
 O        -1.365747         3.209686        -0.895584
 C        -1.985909         1.910147        -0.895871
 H        -0.141014         0.440530         1.161830
 H        -3.512890        -0.318795        -1.003965
 H        -3.729752        -0.252236         0.729237
 H        -4.317945         2.429331        -0.251286
 H        -2.862487         1.588970         2.101657
 H        -2.644150         3.971105         1.481876
 H        -1.372915         3.291731         2.477874
 H        -0.404327         4.609549         0.296888
 H        -0.021099         2.904504         0.596553
 H        -2.038294         1.504522        -1.939885
