19
Iteration:   509charge 0 multiplicity 1
 O        -0.672639         0.105763         0.779831
 C        -1.825179         0.857634         0.283541
 C        -3.156563         0.297559        -0.110960
 C        -3.347793         1.855823        -0.112662
 C        -2.418643         1.896416         1.219859
 C        -1.589282         3.264189         1.395105
 C        -0.680706         3.482146         0.059284
 O        -1.613064         3.292968        -0.999454
 C        -2.010674         1.913169        -1.002990
 H        -0.438157        -0.640252         0.120139
 H        -3.189704        -0.148634        -1.099935
 H        -3.681937        -0.375894         0.619156
 H        -4.325224         2.382390        -0.408446
 H        -2.801153         1.491323         2.196633
 H        -2.158036         4.234590         1.527645
 H        -0.932748         3.119408         2.293523
 H        -0.260582         4.388205         0.043533
 H         0.015557         2.745723         0.097142
 H        -1.918892         1.357475        -1.932410
