19
Iteration:  2153charge 0 multiplicity 1
 O        -0.563887         0.267506         0.318688
 C        -1.785186         0.908782         0.187707
 C        -3.149604         0.310236        -0.040194
 C        -3.409120         1.798501        -0.040793
 C        -2.476137         1.910523         1.267971
 C        -1.789103         3.272076         1.400545
 C        -0.722286         3.437584         0.327556
 O        -1.278838         3.095828        -1.033474
 C        -2.153261         1.950754        -0.861080
 H        -0.726719        -0.469735         0.858627
 H        -3.310701        -0.199062        -1.015393
 H        -3.602519        -0.221700         0.827412
 H        -4.442215         2.144539        -0.194360
 H        -2.793713         1.323265         2.096314
 H        -2.544677         3.949463         1.179641
 H        -1.367864         3.538610         2.430321
 H        -0.487594         4.501417         0.225901
 H         0.221361         2.890046         0.620456
 H        -2.235744         1.402933        -1.795611
