19
Iteration:  4300charge 0 multiplicity 1
 O        -0.641615         0.192006         0.358181
 C        -1.834340         0.914379         0.184650
 C        -3.035150         0.300815        -0.197281
 C        -3.396409         1.880238         0.010918
 C        -2.508147         1.805473         1.224327
 C        -1.831514         3.171578         1.473030
 C        -0.817244         3.506421         0.385517
 O        -1.245782         3.129503        -0.994567
 C        -2.067441         1.966325        -0.943852
 H        -0.205860         0.667478         1.162283
 H        -3.187669        -0.123485        -1.221316
 H        -3.399259        -0.383865         0.619494
 H        -4.365622         2.346652        -0.267439
 H        -2.915176         1.161474         2.051626
 H        -2.615616         3.961537         1.640194
 H        -1.174258         3.232807         2.339906
 H        -0.619465         4.590821         0.427843
 H         0.157143         3.030633         0.400873
 H        -2.189416         1.554730        -1.920544
