19
Iteration:  1423charge 0 multiplicity 1
 O        -0.718489         0.049840         0.582216
 C        -1.779987         0.825065         0.203116
 C        -3.221377         0.335015        -0.053270
 C        -3.285081         1.841036        -0.072595
 C        -2.414676         1.874073         1.161810
 C        -1.630604         3.170452         1.515773
 C        -0.911048         3.683334         0.215191
 O        -1.371551         3.154671        -1.058520
 C        -2.029439         1.928495        -0.956699
 H         0.051078         0.310107        -0.022752
 H        -3.432071        -0.214394        -1.017088
 H        -3.599386        -0.282940         0.796890
 H        -4.094632         2.601045        -0.219738
 H        -2.880300         1.427917         2.063171
 H        -2.252067         3.959463         1.873813
 H        -0.887626         3.050892         2.336620
 H        -0.794541         4.677928        -0.013891
 H         0.143887         3.377249         0.367546
 H        -2.151002         1.651184        -1.995287
