19
Iteration:   859charge 0 multiplicity 1
 O        -0.574927         0.321142         0.668277
 C        -1.876894         0.915116         0.205388
 C        -3.211023         0.242408        -0.092503
 C        -3.453220         1.829715        -0.107481
 C        -2.533108         1.899207         1.155874
 C        -1.520317         3.130883         1.420668
 C        -0.667094         3.448733         0.185226
 O        -1.431516         3.188646        -1.004834
 C        -2.088397         1.949691        -0.937284
 H        -0.417670        -0.471937         0.205754
 H        -3.429484        -0.387120        -0.991974
 H        -3.757387        -0.213321         0.742615
 H        -4.393455         2.354786        -0.265428
 H        -3.060171         1.496876         2.015521
 H        -2.014303         4.050202         1.731877
 H        -0.797304         2.819115         2.287160
 H        -0.750939         4.531075         0.240959
 H         0.343998         2.876196         0.104259
 H        -2.019344         1.537149        -1.933872
