19
Iteration:  4074charge 0 multiplicity 1
 O        -0.614497         0.156282         0.407735
 C        -1.762865         0.888314         0.185603
 C        -3.145602         0.345183        -0.206932
 C        -3.318759         1.841795        -0.037169
 C        -2.471105         1.857811         1.167641
 C        -1.775367         3.219250         1.531952
 C        -0.820097         3.573299         0.294639
 O        -1.355161         3.117555        -0.953943
 C        -2.073934         1.946438        -0.924543
 H        -0.510575         0.006814         1.331018
 H        -3.159532        -0.062678        -1.248636
 H        -3.520647        -0.459210         0.424154
 H        -4.269920         2.299089        -0.240715
 H        -2.957895         1.389169         2.005628
 H        -2.493420         3.976389         1.973709
 H        -0.993703         2.918853         2.341989
 H        -0.665768         4.637949         0.125653
 H         0.145328         3.081617         0.553755
 H        -2.243206         1.495831        -1.962232
