19
Iteration:  1367charge 0 multiplicity 1
 O        -0.569200         0.152478         0.425575
 C        -1.760439         0.837375         0.233098
 C        -3.262868         0.363050        -0.046124
 C        -3.328282         1.874933        -0.114697
 C        -2.379978         1.947087         1.205629
 C        -1.708908         3.231122         1.423906
 C        -0.788417         3.406496         0.261247
 O        -1.476803         3.247013        -1.025891
 C        -2.080322         1.842468        -0.902469
 H        -0.611004        -0.069989         1.431650
 H        -3.147895        -0.111876        -1.047231
 H        -3.768552        -0.235763         0.748314
 H        -4.114882         2.547009        -0.288715
 H        -2.594491         1.367051         2.131931
 H        -2.401816         4.059112         1.463281
 H        -1.113261         3.299705         2.352054
 H        -0.457012         4.392047         0.183772
 H         0.024837         2.719556         0.508982
 H        -1.970672         1.342885        -1.909503
