19
Iteration:  3582charge 0 multiplicity 1
 O        -0.509054         0.309882         0.328935
 C        -1.770101         0.885997         0.106705
 C        -3.219144         0.334417        -0.109978
 C        -3.398342         1.811165        -0.043555
 C        -2.486927         1.875531         1.150134
 C        -1.830634         3.184980         1.427802
 C        -0.785906         3.343105         0.423747
 O        -1.305455         3.148060        -0.901128
 C        -2.061113         1.953363        -0.929299
 H        -0.292128         0.575429         1.299955
 H        -3.457299        -0.248470        -0.952218
 H        -3.700886        -0.267334         0.679847
 H        -4.452280         2.307113        -0.337585
 H        -2.855510         1.376292         2.065858
 H        -2.637351         4.054316         1.434263
 H        -1.338927         3.372271         2.394830
 H        -0.197573         4.289359         0.358141
 H         0.029313         2.560039         0.602144
 H        -2.031650         1.721021        -1.999617
