19
Iteration:  4710charge 0 multiplicity 1
 O        -0.605323         0.123409         0.404835
 C        -1.764080         0.849919         0.167660
 C        -3.084759         0.296697        -0.353510
 C        -3.328685         1.825110        -0.197797
 C        -2.560590         1.716710         1.165414
 C        -1.830146         3.080450         1.692633
 C        -0.869202         3.597472         0.419189
 O        -1.315122         3.340168        -0.870266
 C        -2.009635         2.055693        -0.998249
 H        -0.283879         0.376652         1.264045
 H        -3.118251        -0.198096        -1.348812
 H        -3.587963        -0.358784         0.409589
 H        -4.249876         2.331335        -0.505269
 H        -2.993069         1.017454         1.862104
 H        -2.637481         3.830176         1.825581
 H        -1.350701         2.988215         2.676544
 H        -0.499718         4.626165         0.530103
 H         0.067662         2.948309         0.714690
 H        -1.851484         1.690059        -2.025973
