19
Iteration:  1087
 O        -0.681297         0.069612         0.356965
 C        -1.843054         0.900572         0.274322
 C        -3.087723         0.299527        -0.051234
 C        -3.448934         1.853767        -0.014619
 C        -2.466328         1.940244         1.215766
 C        -1.684452         3.239590         1.370190
 C        -0.725175         3.515051         0.242557
 O        -1.363519         3.161029        -1.000965
 C        -2.059318         1.922629        -0.882033
 H        -0.076765         0.295332         1.081447
 H        -3.139114        -0.260407        -0.994156
 H        -3.585735        -0.236672         0.768139
 H        -4.386546         2.404585        -0.269843
 H        -2.878641         1.504990         2.154351
 H        -2.413047         4.039369         1.503416
 H        -1.166786         3.264283         2.297327
 H        -0.555687         4.556899         0.198232
 H         0.147686         2.955310         0.345680
 H        -2.050193         1.454247        -1.941034
