19
Iteration:   298charge 0 multiplicity 1
 O        -0.617143         0.317631         0.622172
 C        -1.846886         0.869354         0.341241
 C        -3.324371         0.306866        -0.045876
 C        -3.410598         1.848225        -0.099710
 C        -2.462290         1.945868         1.211343
 C        -1.500527         3.140544         1.406226
 C        -0.788947         3.508798         0.125811
 O        -1.361304         3.023310        -1.071701
 C        -2.072046         1.842577        -0.939366
 H         0.091780         0.881013         0.222549
 H        -3.421883        -0.072600        -1.147981
 H        -3.967256        -0.264428         0.655405
 H        -4.428608         2.416982        -0.351559
 H        -2.913207         1.495326         2.208174
 H        -2.182221         4.017993         1.678262
 H        -0.763276         2.991788         2.310242
 H        -0.642533         4.621368         0.100716
 H         0.224045         3.129290         0.188367
 H        -2.074627         1.502617        -1.957177
