19
Iteration:  3267charge 0 multiplicity 1
 O        -0.624215         0.031053         0.373955
 C        -1.737463         0.869290         0.204010
 C        -3.179301         0.300590         0.013671
 C        -3.381471         1.857357        -0.104180
 C        -2.482036         1.883487         1.119635
 C        -1.660066         3.126444         1.447401
 C        -0.820867         3.656092         0.314537
 O        -1.444372         3.221733        -0.947752
 C        -1.997811         1.892846        -0.933049
 H         0.139858         0.498012         0.614268
 H        -3.550687        -0.376829        -0.759593
 H        -3.635182        -0.047320         1.014656
 H        -4.193864         2.634124        -0.484917
 H        -3.172141         1.579132         1.874250
 H        -2.372446         3.925798         1.739568
 H        -1.094396         3.037144         2.434007
 H        -0.783413         4.761288         0.338791
 H         0.241390         3.131058         0.293117
 H        -1.973589         1.500119        -1.927640
