19
Iteration:  2716charge 0 multiplicity 1
 O        -0.560004         0.265806         0.368516
 C        -1.719398         0.911040         0.173031
 C        -3.297875         0.320209        -0.038845
 C        -3.417681         1.846498        -0.061548
 C        -2.397244         1.801685         1.219783
 C        -1.824166         3.165804         1.418373
 C        -0.855328         3.484987         0.324563
 O        -1.302552         3.125188        -0.995316
 C        -1.985404         1.996629        -0.865551
 H        -0.701908        -0.730696         0.330323
 H        -3.224247        -0.239724        -0.968668
 H        -3.834244        -0.109230         0.762263
 H        -4.246701         2.486079        -0.179282
 H        -2.648214         1.304629         2.202933
 H        -2.601675         3.872570         1.216381
 H        -1.338070         3.389965         2.384816
 H        -0.478753         4.582863         0.315872
 H         0.134482         2.929256         0.485152
 H        -1.888520         1.669087        -1.856286
