19
Iteration:  4524
 O        -0.622755         0.137152         0.312385
 C        -1.781317         0.859030         0.173846
 C        -3.050620         0.246809        -0.245463
 C        -3.377204         1.804970        -0.229898
 C        -2.557204         1.912649         1.159066
 C        -1.776349         3.117386         1.556345
 C        -0.825154         3.582967         0.476062
 O        -1.398428         3.250640        -0.874799
 C        -1.950962         1.946097        -0.885241
 H        -0.208703         0.225707         1.287598
 H        -3.296419        -0.428402        -1.080611
 H        -3.712719        -0.159254         0.568733
 H        -4.249743         2.478040        -0.360424
 H        -3.163771         1.357939         1.980844
 H        -2.490988         3.890726         1.814766
 H        -1.083425         2.953543         2.426106
 H        -0.638677         4.655534         0.488678
 H         0.157166         3.177758         0.467383
 H        -1.747109         1.732589        -1.954361
