19
Iteration:  3049charge 0 multiplicity 1
 O        -0.546916         0.225686         0.289587
 C        -1.733994         0.937353         0.150765
 C        -3.168515         0.197272        -0.111794
 C        -3.428012         1.817691        -0.014040
 C        -2.500401         1.984903         1.213560
 C        -1.748608         3.383577         1.490026
 C        -0.762699         3.442615         0.347554
 O        -1.374733         3.116380        -0.921152
 C        -2.078650         1.886421        -0.925429
 H        -0.755623        -0.543357         0.922079
 H        -3.298578        -0.229020        -1.090378
 H        -3.602520        -0.448409         0.681173
 H        -4.367421         2.312238        -0.229483
 H        -2.618889         1.296160         2.152089
 H        -2.389105         4.217162         1.388319
 H        -1.348089         3.253438         2.519476
 H        -0.285519         4.411132         0.228363
 H         0.000971         2.664850         0.397233
 H        -2.133311         1.531828        -1.971361
