19
Iteration:  3297charge 0 multiplicity 1
 O        -0.702980         0.092530         0.489441
 C        -1.766581         0.910890         0.255057
 C        -3.112579         0.259157        -0.181636
 C        -3.450304         1.819583        -0.052418
 C        -2.431192         1.852271         1.222171
 C        -1.561149         3.211160         1.558140
 C        -0.846721         3.658412         0.299111
 O        -1.371477         3.153645        -1.047735
 C        -2.112822         1.929616        -0.973768
 H         0.227678         0.332353         0.133927
 H        -3.113979        -0.209920        -1.222352
 H        -3.710924        -0.461046         0.520127
 H        -4.266629         2.433400        -0.364174
 H        -3.036562         1.473794         2.081269
 H        -2.251569         4.009956         1.917010
 H        -0.989716         2.932487         2.386835
 H        -0.769511         4.772506         0.158920
 H         0.122210         3.316195         0.452538
 H        -2.246141         1.492584        -1.943869
