19
Iteration:  3367charge 0 multiplicity 1
 O        -0.558744         0.228397         0.314082
 C        -1.748267         0.927500         0.182637
 C        -3.136318         0.244979        -0.008197
 C        -3.376813         1.821094        -0.149061
 C        -2.505408         2.018308         1.192578
 C        -1.801667         3.238068         1.419030
 C        -0.744360         3.467466         0.400289
 O        -1.364896         3.111829        -0.906350
 C        -2.106859         1.941575        -0.905930
 H        -0.677842        -0.660182        -0.158636
 H        -2.994066        -0.235804        -1.014616
 H        -3.565740        -0.542888         0.678460
 H        -4.408761         2.329050        -0.209876
 H        -3.008273         1.591709         2.069566
 H        -2.528183         4.019852         1.597337
 H        -1.239882         3.259268         2.425808
 H        -0.278728         4.454110         0.424286
 H         0.073743         2.756239         0.666112
 H        -2.152878         1.414756        -1.874765
