19
Iteration:   589charge 0 multiplicity 1
 O        -0.587700         0.206096         0.346561
 C        -1.847145         0.816138         0.285686
 C        -3.345017         0.312863        -0.050664
 C        -3.370809         1.848589         0.011887
 C        -2.433965         1.961777         1.256352
 C        -1.723336         3.354606         1.362683
 C        -0.884699         3.712300         0.227363
 O        -1.089268         2.802186        -0.943320
 C        -2.095747         1.805197        -0.816633
 H        -0.091417         0.398235        -0.523644
 H        -3.443453        -0.144955        -1.054713
 H        -4.050697         0.015862         0.690650
 H        -4.189627         2.435599        -0.243194
 H        -2.779470         1.751531         2.311650
 H        -2.402691         4.275460         1.436520
 H        -1.038240         3.360423         2.228128
 H        -1.068666         4.759120        -0.327377
 H         0.137809         3.526093         0.375095
 H        -2.420938         1.460814        -1.949915
