19
Iteration:  2015charge 0 multiplicity 1
 O        -0.627019         0.049793         0.254622
 C        -1.782416         0.798241         0.186148
 C        -3.164699         0.325257         0.005015
 C        -3.307675         1.843133        -0.048689
 C        -2.439165         1.975143         1.156607
 C        -1.751185         3.320095         1.475259
 C        -0.919276         3.738092         0.257684
 O        -1.269425         3.012217        -0.900911
 C        -2.030891         1.849511        -0.919721
 H        -0.675802        -0.618508         1.043312
 H        -3.508041        -0.225269        -0.831122
 H        -3.528104         0.011782         0.966443
 H        -4.265442         2.369653        -0.053109
 H        -2.804884         1.678292         2.102536
 H        -2.629312         3.954883         1.758271
 H        -1.101512         3.335418         2.328320
 H        -1.102532         4.755745        -0.029154
 H         0.180155         3.691068         0.465932
 H        -2.067396         1.579421        -2.063342
