19
Iteration:  2152charge 0 multiplicity 1
 O        -0.560413         0.267521         0.321551
 C        -1.780341         0.899352         0.187453
 C        -3.147754         0.296438        -0.049197
 C        -3.410251         1.810494        -0.033848
 C        -2.481693         1.914872         1.264624
 C        -1.789940         3.282237         1.398740
 C        -0.723522         3.430542         0.325279
 O        -1.281702         3.099453        -1.024845
 C        -2.155054         1.955809        -0.860392
 H        -0.754995        -0.458249         0.864427
 H        -3.296052        -0.205457        -1.024885
 H        -3.568411        -0.213398         0.829282
 H        -4.412799         2.176723        -0.220403
 H        -2.774341         1.323911         2.113839
 H        -2.565535         3.971221         1.180287
 H        -1.350513         3.495796         2.414150
 H        -0.475589         4.515274         0.232732
 H         0.227302         2.851012         0.578038
 H        -2.283168         1.329820        -1.808710
