19
Iteration:  4509charge 0 multiplicity 1
 O        -0.552694         0.166047         0.374637
 C        -1.739480         0.921338         0.197344
 C        -3.181371         0.293595        -0.250536
 C        -3.347793         1.791080        -0.135537
 C        -2.513237         1.759878         1.170629
 C        -1.828862         3.161995         1.590438
 C        -0.854893         3.550398         0.382079
 O        -1.309126         3.269944        -0.909185
 C        -2.011574         2.016253        -0.966349
 H        -0.833691        -0.329819         1.174819
 H        -3.031906         0.023693        -1.302958
 H        -3.516661        -0.442351         0.478445
 H        -4.295410         2.199322        -0.423326
 H        -2.876602         1.343646         2.060905
 H        -2.596773         3.933283         1.809155
 H        -1.334142         2.918461         2.523408
 H        -0.616670         4.632148         0.393908
 H         0.072070         2.929618         0.653027
 H        -2.046711         1.617623        -1.972625
