19
Iteration:  2565charge 0 multiplicity 1
 O        -0.564501         0.131115         0.329684
 C        -1.814470         0.805338         0.145233
 C        -3.240397         0.298265        -0.041986
 C        -3.310396         1.879524        -0.094056
 C        -2.436961         1.877752         1.178273
 C        -1.715642         3.236655         1.533910
 C        -0.880958         3.677975         0.327365
 O        -1.341678         3.097360        -0.944430
 C        -2.011266         1.868991        -0.991094
 H        -0.560442         0.079657         1.358033
 H        -3.592051        -0.154170        -1.070101
 H        -3.617296        -0.265952         0.835524
 H        -4.153287         2.475187        -0.242809
 H        -3.069476         1.486824         2.003707
 H        -2.420955         3.988280         1.988787
 H        -0.943112         3.117937         2.399331
 H        -0.908817         4.793312         0.180437
 H         0.142222         3.274627         0.460038
 H        -2.048955         1.536917        -2.074265
