19
Iteration:  2137
 O        -0.524951         0.237419         0.367820
 C        -1.790269         0.916755         0.202245
 C        -3.131531         0.210042        -0.082337
 C        -3.405338         1.866714         0.026235
 C        -2.488770         1.954912         1.199991
 C        -1.793195         3.299835         1.377086
 C        -0.750882         3.394225         0.264110
 O        -1.392090         3.118696        -0.940786
 C        -2.082914         1.918679        -0.920869
 H        -0.535801        -0.535242         0.968496
 H        -3.257864        -0.303465        -1.034357
 H        -3.581653        -0.470864         0.643142
 H        -4.231741         2.586228        -0.092763
 H        -2.954193         1.661583         2.196364
 H        -2.403604         4.284265         1.515109
 H        -1.298319         3.295492         2.331097
 H        -0.139713         4.324180         0.159743
 H        -0.024006         2.577538         0.509062
 H        -2.181908         1.879889        -2.125444
