19
Iteration:  2771charge 0 multiplicity 1
 O        -0.654276         0.142796         0.444307
 C        -1.713771         0.872380         0.284093
 C        -3.108671         0.297710        -0.031272
 C        -3.322658         1.860607        -0.168032
 C        -2.458735         1.892690         1.151185
 C        -1.708647         3.089566         1.437562
 C        -0.771275         3.594113         0.256651
 O        -1.484881         3.247174        -0.901383
 C        -2.024316         1.934668        -0.936157
 H        -0.922785        -0.741685         0.417419
 H        -3.191061        -0.217205        -1.009991
 H        -3.651240        -0.275346         0.688075
 H        -4.323136         2.272412        -0.387244
 H        -3.139387         1.521616         2.028178
 H        -2.384411         3.924799         1.572773
 H        -1.117369         3.021424         2.390254
 H        -0.678998         4.790098         0.244512
 H         0.243253         3.036742         0.143520
 H        -1.907771         1.660881        -1.993503
