19
Iteration:  2679
 O        -0.503736         0.214105         0.289301
 C        -1.770278         0.932272         0.190903
 C        -3.078597         0.247369        -0.070233
 C        -3.473220         1.850473        -0.101098
 C        -2.528010         2.041676         1.183740
 C        -1.779254         3.305691         1.494364
 C        -0.769509         3.432209         0.295977
 O        -1.336584         3.062245        -0.861288
 C        -2.076778         1.942183        -0.871022
 H        -0.718196        -0.811606         0.361366
 H        -3.136275        -0.205004        -1.041614
 H        -3.614586        -0.327809         0.745377
 H        -4.541747         2.118079        -0.443247
 H        -2.945290         1.341647         2.007767
 H        -2.511345         4.187909         1.526417
 H        -1.280770         3.205749         2.428233
 H        -0.380117         4.429634         0.257476
 H         0.056203         2.678725         0.492663
 H        -2.364297         1.675887        -1.948844
