19
Iteration:  1805
 O        -0.689810        -0.081263         0.346630
 C        -1.753216         0.765110         0.225107
 C        -3.176411         0.254914         0.051869
 C        -3.322530         1.930443        -0.026374
 C        -2.476723         1.906620         1.213910
 C        -1.761653         3.320638         1.417768
 C        -0.826602         3.671095         0.245103
 O        -1.294936         3.198097        -1.008096
 C        -2.036945         1.910453        -0.948559
 H         0.038482         0.501977         0.550612
 H        -3.224624        -0.366047        -0.823821
 H        -3.557789        -0.160033         0.937681
 H        -4.393194         2.376154         0.009259
 H        -2.859071         1.399446         2.090001
 H        -2.641123         4.031817         1.470563
 H        -1.274216         3.423112         2.368330
 H        -0.697791         4.723105         0.043778
 H         0.180665         3.269583         0.558786
 H        -2.163833         1.537995        -2.068878
