19
Iteration:  1666charge 0 multiplicity 1
 O        -0.615751         0.033109         0.369877
 C        -1.748070         0.864337         0.262831
 C        -3.211579         0.275786        -0.057764
 C        -3.283519         1.909806        -0.036886
 C        -2.379753         1.876664         1.254830
 C        -1.806946         3.301895         1.377933
 C        -0.848829         3.628305         0.248207
 O        -1.345282         3.133468        -0.956104
 C        -2.045474         1.959389        -0.926055
 H        -0.763649        -0.900887         0.441135
 H        -3.196631        -0.241592        -1.054578
 H        -3.733621        -0.223805         0.806131
 H        -4.204470         2.506213        -0.130805
 H        -2.774172         1.456449         2.210370
 H        -2.728769         3.953514         1.408655
 H        -1.284055         3.460675         2.311930
 H        -0.680706         4.665278        -0.025724
 H         0.121526         3.122871         0.532575
 H        -2.080756         1.470670        -1.893615
