19
Iteration:  2668charge 0 multiplicity 1
 O        -0.549619         0.222771         0.288935
 C        -1.766749         0.967086         0.252794
 C        -3.082868         0.335737        -0.084269
 C        -3.434286         1.778559        -0.098233
 C        -2.550256         1.927731         1.190072
 C        -1.792064         3.285760         1.501957
 C        -0.705151         3.423845         0.340925
 O        -1.377513         3.143902        -0.935628
 C        -2.099002         1.903982        -0.923750
 H        -0.865544        -0.675574         0.516010
 H        -3.147520        -0.203793        -1.014307
 H        -3.424105        -0.307687         0.769089
 H        -4.468274         2.230077        -0.335153
 H        -2.883752         1.533551         2.225009
 H        -2.540007         4.134300         1.606356
 H        -1.253884         3.228413         2.428706
 H        -0.223998         4.349551         0.087105
 H         0.127270         2.688061         0.563862
 H        -1.918022         1.421819        -1.952861
