19
Iteration:    86charge 0 multiplicity 1
 O        -0.711872        -0.103699         0.611699
 C        -1.836891         0.792390         0.250185
 C        -3.301507         0.353329        -0.000638
 C        -3.343345         1.908555        -0.120011
 C        -2.324055         2.014430         1.217930
 C        -1.501385         3.232644         1.325733
 C        -1.085082         3.935292         0.090349
 O        -1.211465         3.027781        -1.017543
 C        -2.007546         1.789949        -0.822912
 H        -0.456866        -0.734575        -0.123702
 H        -3.423731        -0.321623        -0.863639
 H        -3.659608        -0.114247         0.994369
 H        -4.138760         2.451443        -0.374077
 H        -2.784849         1.687362         2.253839
 H        -2.141763         3.982415         1.855848
 H        -0.588896         3.124578         2.009494
 H        -1.688793         4.899495        -0.231689
 H        -0.097303         4.326495         0.165920
 H        -2.041747         1.310019        -1.769362
