19
Iteration:   584
 O        -0.581979         0.225759         0.360329
 C        -1.878435         0.817728         0.233202
 C        -3.304646         0.328781         0.013099
 C        -3.371136         1.892331        -0.024685
 C        -2.463099         1.933141         1.248806
 C        -1.709804         3.342260         1.364845
 C        -0.867935         3.716588         0.212104
 O        -1.114573         2.782001        -0.936108
 C        -2.075416         1.787725        -0.875016
 H        -0.159212         0.331855        -0.467256
 H        -3.472239        -0.162308        -0.952434
 H        -4.004674        -0.048214         0.817827
 H        -4.270067         2.617286        -0.137722
 H        -2.731798         1.522069         2.227403
 H        -2.435815         4.163794         1.409455
 H        -1.136246         3.448908         2.302448
 H        -1.070581         4.688698        -0.037011
 H         0.256032         3.720821         0.473481
 H        -2.372355         1.479137        -1.782936
