19
Iteration:  4448charge 0 multiplicity 1
 O        -0.577762         0.149246         0.236296
 C        -1.752606         0.860874         0.205763
 C        -3.117488         0.268383        -0.110169
 C        -3.388501         1.788461        -0.218586
 C        -2.615602         1.948347         1.138716
 C        -1.826828         3.209608         1.561419
 C        -0.794564         3.481895         0.437929
 O        -1.317077         3.209054        -0.821546
 C        -1.993127         1.941135        -0.889670
 H         0.033059         0.859452         0.459524
 H        -3.187436        -0.259882        -1.080618
 H        -3.588563        -0.314944         0.716566
 H        -4.320947         2.235215        -0.603892
 H        -3.251412         1.396902         1.952903
 H        -2.501583         4.074444         1.717230
 H        -1.430341         2.940150         2.581575
 H        -0.487172         4.525612         0.280665
 H         0.145872         2.905677         0.513837
 H        -1.826740         1.646553        -1.974693
