19
Iteration:  2661charge 0 multiplicity 1
 O        -0.597635         0.247950         0.308571
 C        -1.727525         0.958075         0.230051
 C        -3.136644         0.285207        -0.072623
 C        -3.387557         1.763020        -0.089079
 C        -2.516473         1.911963         1.244875
 C        -1.771884         3.255808         1.448816
 C        -0.706375         3.422837         0.391112
 O        -1.407337         3.180676        -1.002518
 C        -2.066876         1.939755        -0.949422
 H        -0.775264        -0.698991         0.658277
 H        -3.176926        -0.293673        -0.990850
 H        -3.575615        -0.314656         0.691030
 H        -4.229354         2.341704        -0.172887
 H        -3.072019         1.554391         2.106138
 H        -2.384171         4.127112         1.540800
 H        -1.335328         3.207476         2.460250
 H        -0.332448         4.489805         0.312135
 H         0.011111         2.625082         0.579050
 H        -1.886939         1.402272        -1.828810
