19
Iteration:  2009charge 0 multiplicity 1
 O        -0.636279         0.042493         0.243209
 C        -1.768546         0.806424         0.200828
 C        -3.185348         0.318916         0.051379
 C        -3.299572         1.863807        -0.041526
 C        -2.397457         1.990883         1.157136
 C        -1.764250         3.324799         1.427363
 C        -0.934899         3.763216         0.303664
 O        -1.282107         2.988073        -0.931587
 C        -2.008054         1.867247        -0.901219
 H        -0.755945        -0.584494         0.942241
 H        -3.246473        -0.201010        -0.981641
 H        -3.651070        -0.210577         0.944484
 H        -4.228157         2.393432        -0.309239
 H        -2.710858         1.483841         2.153072
 H        -2.532688         4.123609         1.524602
 H        -1.185152         3.092277         2.376102
 H        -1.197203         4.879448         0.156670
 H         0.106100         3.448926         0.469466
 H        -2.196188         1.583533        -1.936310
