19
Iteration:   331charge 0 multiplicity 1
 O        -0.652753         0.262570         0.626210
 C        -1.806885         0.912937         0.248922
 C        -3.142724         0.276685         0.092492
 C        -3.426354         1.845099        -0.108259
 C        -2.519610         1.989830         1.134200
 C        -1.532075         3.140813         1.418393
 C        -0.775320         3.490448         0.193457
 O        -1.357758         3.102519        -1.055931
 C        -2.077237         1.934395        -1.031599
 H        -0.585129        -0.643740         0.167039
 H        -3.473153        -0.365152        -0.828824
 H        -3.643860        -0.202093         0.959539
 H        -4.508663         2.259826        -0.266598
 H        -3.038426         1.557949         2.099954
 H        -2.251718         3.984189         1.617441
 H        -0.840773         2.993967         2.358804
 H        -0.754189         4.563276        -0.014167
 H         0.212256         3.085288         0.164873
 H        -2.180154         1.577545        -2.045104
