19
Iteration:  3096
 O        -0.584909         0.156586         0.472856
 C        -1.755623         0.839858         0.173060
 C        -3.226990         0.387319        -0.062247
 C        -3.288445         1.870356        -0.024538
 C        -2.377708         1.845342         1.235246
 C        -1.787003         3.201915         1.481698
 C        -0.856729         3.543960         0.307525
 O        -1.415195         3.191736        -1.051978
 C        -1.994311         1.916768        -0.970787
 H        -0.467949        -0.703907        -0.020186
 H        -3.483330        -0.154127        -1.070701
 H        -3.624213        -0.164021         0.825778
 H        -4.236604         2.513844        -0.089528
 H        -2.991961         1.344554         2.072384
 H        -2.621343         3.800092         1.792484
 H        -1.002731         3.098254         2.220603
 H        -0.877546         4.628922         0.260505
 H         0.152979         3.049564         0.348743
 H        -1.997618         1.481571        -2.047690
