19
Iteration:   293charge 0 multiplicity 1
 O        -0.597371         0.296564         0.598659
 C        -1.857416         0.847444         0.329332
 C        -3.312191         0.330202        -0.088146
 C        -3.383247         1.893211        -0.107465
 C        -2.471061         1.951313         1.237596
 C        -1.524651         3.153032         1.437997
 C        -0.798168         3.478582         0.122993
 O        -1.393266         2.998037        -1.088961
 C        -2.056627         1.844245        -0.910491
 H         0.012086         0.979811         0.328784
 H        -3.399312        -0.086982        -1.070490
 H        -3.851159        -0.148654         0.733938
 H        -4.294879         2.361910        -0.124988
 H        -2.928331         1.609214         2.110411
 H        -2.087142         4.079484         1.558269
 H        -0.901239         3.091333         2.319815
 H        -0.722847         4.596069         0.219310
 H         0.304195         3.220560         0.136548
 H        -2.043129         1.325606        -1.921288
