19
Iteration:  1988charge 0 multiplicity 1
 O        -0.598170         0.046954         0.261169
 C        -1.754561         0.847536         0.303326
 C        -3.216808         0.309293        -0.041684
 C        -3.349160         1.823184        -0.028026
 C        -2.420737         1.884327         1.294584
 C        -1.827808         3.333700         1.485032
 C        -0.853982         3.681484         0.190447
 O        -1.252115         3.128219        -1.053151
 C        -2.015071         1.876501        -0.897880
 H        -0.807941        -0.757762         0.876885
 H        -3.416442        -0.203297        -1.056989
 H        -3.634025        -0.065659         0.937055
 H        -4.278142         2.458980        -0.014302
 H        -2.876502         1.524095         2.285170
 H        -2.764810         3.899317         1.519729
 H        -1.089233         3.505801         2.376891
 H        -0.938041         4.811053         0.084307
 H         0.071455         3.208975         0.538537
 H        -1.991655         1.468244        -1.852277
