19
Iteration:  1509
 O        -0.530854         0.228882         0.373858
 C        -1.815914         0.823478         0.178880
 C        -3.209384         0.302728        -0.056089
 C        -3.335959         1.854076        -0.048429
 C        -2.483739         1.922260         1.281034
 C        -1.764855         3.315698         1.405521
 C        -0.736256         3.397048         0.314211
 O        -1.385782         3.179996        -0.996723
 C        -2.035265         1.920893        -0.909051
 H        -0.715559        -0.745275         0.623397
 H        -3.420910        -0.209130        -1.001799
 H        -3.681510        -0.102355         0.839512
 H        -4.267992         2.411729        -0.289750
 H        -2.857854         1.465652         2.234030
 H        -2.531884         4.164444         1.124032
 H        -1.515457         3.495388         2.406062
 H        -0.178075         4.325027         0.173298
 H        -0.004953         2.565110         0.479598
 H        -2.174226         1.389173        -1.912904
