19
Iteration:  2950charge 0 multiplicity 1
 O        -0.597605         0.027985         0.441922
 C        -1.767933         0.834801         0.231459
 C        -3.257466         0.391047        -0.099579
 C        -3.347110         1.842852        -0.095460
 C        -2.381124         1.811061         1.196206
 C        -1.714024         3.148469         1.489077
 C        -0.888170         3.597581         0.218635
 O        -1.428651         3.283606        -1.030861
 C        -1.940543         1.944252        -0.894733
 H        -0.152897         0.158707         1.262780
 H        -3.243829        -0.273181        -0.944912
 H        -3.899696         0.038465         0.782282
 H        -4.317490         2.259612        -0.178414
 H        -2.838321         1.247427         2.030247
 H        -2.392638         3.856497         1.767463
 H        -0.938194         3.012311         2.310953
 H        -0.777622         4.663608         0.066112
 H         0.132511         3.341298         0.362502
 H        -2.193095         1.595540        -1.886490
