19
Iteration:  2241
 O        -0.561956         0.050006         0.482958
 C        -1.743938         0.828527         0.222275
 C        -3.204856         0.255946        -0.102702
 C        -3.360976         1.857614        -0.094935
 C        -2.414957         1.868877         1.215511
 C        -1.708124         3.235936         1.502395
 C        -0.781192         3.596567         0.233930
 O        -1.419088         3.232033        -0.995581
 C        -2.097930         1.982746        -1.017196
 H        -0.835101        -0.397968         1.248427
 H        -3.229749        -0.206548        -1.062595
 H        -3.721212        -0.204195         0.752240
 H        -4.350294         2.413871        -0.018514
 H        -2.791969         1.389533         2.096775
 H        -2.377112         4.025647         1.514124
 H        -1.077025         3.266196         2.431447
 H        -0.751730         4.664685         0.234774
 H         0.204811         3.154962         0.167370
 H        -2.223624         1.594111        -1.974263
