19
Iteration:  1679
 O        -0.575107         0.116955         0.390230
 C        -1.756363         0.832833         0.243100
 C        -3.152443         0.384908        -0.113241
 C        -3.313694         1.825451         0.037165
 C        -2.459505         1.906285         1.265627
 C        -1.814534         3.273270         1.370219
 C        -0.793969         3.532910         0.234937
 O        -1.406931         3.174620        -1.038948
 C        -1.977241         1.863239        -0.822762
 H        -1.053028        -0.783816         0.330305
 H        -3.443057        -0.074247        -1.104064
 H        -3.774313        -0.229826         0.633391
 H        -4.048767         2.506680        -0.179011
 H        -2.917842         1.483908         2.186167
 H        -2.467902         4.070937         1.263378
 H        -1.283098         3.425528         2.405311
 H        -0.644341         4.684801         0.438368
 H         0.192103         3.001256         0.306607
 H        -2.223970         1.550902        -1.778101
