19
Iteration:  2178
 O        -0.532886         0.240048         0.256881
 C        -1.839210         0.833260         0.146618
 C        -3.257678         0.258579         0.003575
 C        -3.381689         1.857599         0.031056
 C        -2.483994         1.954516         1.185447
 C        -1.822852         3.289606         1.389446
 C        -0.819180         3.559416         0.309343
 O        -1.214637         3.072158        -0.966007
 C        -2.034176         1.865837        -0.882251
 H        -0.553942        -0.463243         0.885375
 H        -3.473010        -0.412783        -0.857819
 H        -3.608762        -0.312011         0.921980
 H        -4.281850         2.541264        -0.093846
 H        -2.731376         1.358599         2.081560
 H        -2.578065         4.076624         1.567609
 H        -1.219555         3.215974         2.354212
 H        -0.666448         4.608830         0.133459
 H         0.167957         3.195096         0.731804
 H        -2.020461         1.501273        -1.884053
