19
Iteration:  1464charge 0 multiplicity 1
 O        -0.634002         0.251874         0.364904
 C        -1.814935         0.881091         0.195453
 C        -3.249064         0.297785        -0.039692
 C        -3.344628         1.840891        -0.034932
 C        -2.465420         1.905434         1.234124
 C        -1.755814         3.275456         1.503554
 C        -0.782370         3.632904         0.229335
 O        -1.201333         2.991082        -0.986169
 C        -2.067856         1.862483        -0.896134
 H        -0.493236        -0.642857        -0.032921
 H        -3.457758        -0.082348        -1.034511
 H        -3.707755        -0.227110         0.792326
 H        -4.240142         2.312984        -0.328652
 H        -2.953983         1.367926         2.081721
 H        -2.561428         4.047595         1.823814
 H        -1.196049         3.152441         2.364352
 H        -0.835202         4.739769         0.242560
 H         0.279425         3.370803         0.384837
 H        -2.296490         1.449346        -1.948865
