19
Iteration:  2110
 O        -0.561905         0.235657         0.423853
 C        -1.761631         0.948819         0.218718
 C        -3.144679         0.249754        -0.050574
 C        -3.419701         1.840706        -0.156798
 C        -2.479728         1.914777         1.233100
 C        -1.686498         3.199650         1.445736
 C        -0.706551         3.415408         0.224347
 O        -1.509737         3.215728        -0.963750
 C        -2.067914         1.887429        -0.911816
 H        -0.649166        -0.415763         1.143600
 H        -3.320286        -0.521217        -0.845372
 H        -3.600178        -0.026781         0.930276
 H        -4.183044         2.462416        -0.692520
 H        -2.876221         1.448580         2.141194
 H        -2.171277         4.114360         1.488461
 H        -1.208735         3.105208         2.483206
 H        -0.359069         4.441237         0.249772
 H         0.193013         2.778609         0.249883
 H        -2.079389         1.647352        -1.843319
