19
Iteration:   652
 O        -0.723418        -0.083295         0.580179
 C        -1.725150         0.789717         0.195701
 C        -3.233338         0.328168         0.036706
 C        -3.376481         1.866877        -0.032964
 C        -2.386665         1.970388         1.124022
 C        -1.625312         3.311498         1.415542
 C        -0.792484         3.674998         0.222178
 O        -1.457602         3.177201        -1.074697
 C        -1.994560         1.859451        -1.030829
 H        -0.018638         0.493069         1.018292
 H        -3.433560        -0.486840        -0.710960
 H        -3.672886        -0.029162         0.981756
 H        -4.222416         2.462379        -0.340376
 H        -2.807031         1.590606         2.099081
 H        -2.439667         4.080490         1.642914
 H        -1.098226         3.156298         2.351364
 H        -0.635733         4.717130         0.111475
 H         0.182867         3.159038         0.332805
 H        -1.954275         1.459655        -2.039306
