19
Iteration:  2647charge 0 multiplicity 1
 O        -0.541228         0.239097         0.385169
 C        -1.842440         0.842337         0.213601
 C        -3.194047         0.198787        -0.075905
 C        -3.299914         1.880497        -0.063238
 C        -2.461907         1.888520         1.178720
 C        -1.773977         3.181520         1.448732
 C        -0.800842         3.425224         0.301872
 O        -1.378452         3.274281        -0.971767
 C        -2.014190         1.952135        -0.914610
 H        -0.674199        -0.460919         1.009823
 H        -3.372097        -0.257679        -1.000130
 H        -3.738529        -0.221488         0.776194
 H        -4.273406         2.387431        -0.296939
 H        -2.863890         1.398604         2.154441
 H        -2.558124         3.961780         1.347726
 H        -1.215993         3.300385         2.315564
 H        -0.385069         4.422058         0.425131
 H         0.124482         2.792389         0.248036
 H        -2.272427         1.770349        -1.963657
