19
Iteration:  4381
 O        -0.555571         0.155801         0.524315
 C        -1.760981         0.887010         0.161320
 C        -3.067492         0.282867        -0.288714
 C        -3.454461         1.813188        -0.059430
 C        -2.443844         1.843610         1.166312
 C        -1.808080         3.173620         1.495848
 C        -0.793988         3.521934         0.353624
 O        -1.354138         3.181813        -0.907165
 C        -2.096977         2.048758        -0.912579
 H        -0.430690        -0.740904         0.078113
 H        -3.152653         0.086872        -1.385973
 H        -3.591984        -0.479500         0.309424
 H        -4.312945         2.464204        -0.225174
 H        -2.854630         1.458429         2.192184
 H        -2.686127         3.909140         1.467452
 H        -1.252003         3.338366         2.475636
 H        -0.642795         4.620723         0.420645
 H         0.199444         3.037714         0.506495
 H        -2.204307         1.781161        -1.997787
