19
Iteration:   370
 O        -0.567983        -0.008379         0.393680
 C        -1.784207         0.821560         0.249943
 C        -3.233915         0.348447        -0.007738
 C        -3.307572         1.845527         0.022738
 C        -2.441567         2.024782         1.276430
 C        -1.763044         3.384045         1.337160
 C        -0.772634         3.511025         0.146835
 O        -1.386812         3.150943        -0.988039
 C        -2.038563         1.834496        -0.897431
 H        -0.616955        -0.225061         1.343395
 H        -3.284372        -0.053112        -1.017846
 H        -3.792072        -0.324611         0.619580
 H        -4.160843         2.373709        -0.237791
 H        -3.009834         1.747064         2.109151
 H        -2.550551         4.098003         1.119916
 H        -1.299024         3.613096         2.255114
 H        -0.546355         4.661720         0.116513
 H         0.102002         2.792328         0.349858
 H        -2.059814         1.519112        -1.980420
