19
Iteration:  2920
 O        -0.710167         0.017158         0.416858
 C        -1.761489         0.854969         0.089257
 C        -3.089916         0.263979        -0.139502
 C        -3.337431         1.827419         0.015433
 C        -2.399915         1.897339         1.204802
 C        -1.721163         3.304566         1.461230
 C        -0.798187         3.609410         0.312102
 O        -1.390585         3.165274        -0.962716
 C        -2.074942         1.946645        -0.937672
 H        -0.230348         0.374655         1.205366
 H        -3.325555        -0.139216        -1.166081
 H        -3.531387        -0.245253         0.760491
 H        -4.376144         2.047314        -0.047828
 H        -2.770334         1.361589         2.014902
 H        -2.459647         4.135669         1.637317
 H        -1.203717         3.250265         2.402708
 H        -0.782851         4.625199         0.029128
 H         0.302378         3.255563         0.500703
 H        -2.411567         1.684801        -1.971916
