19
Iteration:  3743
 O        -0.591405         0.293518         0.358012
 C        -1.728346         0.915104         0.240760
 C        -3.196446         0.248610         0.008014
 C        -3.364811         1.817253        -0.201392
 C        -2.597884         1.916914         1.142102
 C        -1.787622         3.164324         1.491108
 C        -0.746979         3.466456         0.400284
 O        -1.311709         3.095895        -0.958429
 C        -2.083506         1.970042        -0.968535
 H         0.223505         0.473813        -0.153344
 H        -3.356682        -0.556364        -0.785268
 H        -3.621567        -0.228152         0.929496
 H        -4.298196         2.459952        -0.242635
 H        -3.153286         1.599069         2.039467
 H        -2.344369         4.030749         1.698100
 H        -1.245498         2.976979         2.448793
 H        -0.204644         4.401462         0.176332
 H         0.049407         2.847344         0.840128
 H        -2.131488         1.510454        -1.991565
