19
Iteration:  1188charge 0 multiplicity 1
 O        -0.546190         0.205295         0.594001
 C        -1.809759         0.854896         0.170518
 C        -3.358328         0.367455        -0.058633
 C        -3.347909         1.904904        -0.139640
 C        -2.372908         1.899339         1.249742
 C        -1.601528         3.086704         1.491751
 C        -0.918068         3.572095         0.254326
 O        -1.312621         3.073893        -1.032223
 C        -2.082486         1.893406        -0.992541
 H         0.094067         0.187827        -0.117365
 H        -3.610977        -0.175652        -0.996041
 H        -3.881692        -0.103381         0.789437
 H        -4.300868         2.433479        -0.294652
 H        -2.879442         1.431216         2.132408
 H        -2.356051         3.922007         1.711298
 H        -0.945473         3.048364         2.304704
 H        -0.939491         4.713107         0.215265
 H         0.108447         3.352569         0.366833
 H        -2.248625         1.500988        -2.096649
