19
Iteration:  3488
 O        -0.631629         0.098150         0.560665
 C        -1.790019         0.863694         0.116716
 C        -3.256261         0.278008        -0.180328
 C        -3.320753         1.848007        -0.071353
 C        -2.435723         1.827294         1.151812
 C        -1.689889         3.149836         1.535478
 C        -0.904774         3.755234         0.323486
 O        -1.323182         3.179470        -0.962299
 C        -1.951789         1.904778        -0.942089
 H        -0.375835        -0.344413        -0.242033
 H        -3.334013        -0.202622        -1.222538
 H        -3.796331        -0.337913         0.560635
 H        -4.150895         2.526304        -0.140076
 H        -2.922591         1.397601         2.030109
 H        -2.413182         3.850367         1.860152
 H        -1.054936         2.931293         2.443308
 H        -1.043926         4.813311         0.280399
 H         0.156360         3.597484         0.310834
 H        -2.190349         1.531419        -1.948246
