19
Iteration:   573
 O        -0.620493         0.231733         0.408034
 C        -1.833789         0.841660         0.214403
 C        -3.312809         0.345605         0.104176
 C        -3.384691         1.952921        -0.021125
 C        -2.419494         1.925327         1.180722
 C        -1.761833         3.261114         1.439289
 C        -0.848098         3.664755         0.163394
 O        -1.093437         2.846229        -0.963156
 C        -2.095450         1.829663        -0.939174
 H        -0.169671         0.234574        -0.466551
 H        -3.584331        -0.239241        -0.780157
 H        -3.550078        -0.228222         1.063202
 H        -4.348964         2.589568        -0.155176
 H        -2.920246         1.434981         2.023630
 H        -2.676778         3.865324         1.505746
 H        -1.237085         3.342768         2.405976
 H        -1.101431         4.592326        -0.173522
 H         0.291036         3.579251         0.345066
 H        -1.994041         1.446692        -1.877384
