19
Iteration:  4222charge 0 multiplicity 1
 O        -0.554784         0.170087         0.413386
 C        -1.756693         0.868133         0.224588
 C        -3.113937         0.276517        -0.133895
 C        -3.355564         1.796277        -0.133655
 C        -2.583547         1.907149         1.213087
 C        -1.792445         3.192910         1.522062
 C        -0.798633         3.535079         0.321280
 O        -1.316510         3.249047        -1.020498
 C        -2.043613         2.004490        -0.887155
 H        -0.845398        -0.745959         0.408334
 H        -3.210196        -0.387050        -1.014967
 H        -3.634005        -0.233707         0.735159
 H        -4.405821         2.077149        -0.306570
 H        -3.152852         1.446468         2.059437
 H        -2.396150         4.092153         1.794544
 H        -1.203639         2.874816         2.354861
 H        -0.441863         4.575135         0.430494
 H         0.016082         2.824600         0.315209
 H        -2.042878         1.544587        -1.877217
