19
Iteration:  3130
 O        -0.660494         0.098860         0.540617
 C        -1.775323         0.849043         0.187268
 C        -3.187120         0.314577        -0.159501
 C        -3.424021         1.826299        -0.018142
 C        -2.400310         1.807424         1.229198
 C        -1.671572         3.197194         1.431501
 C        -0.783169         3.650829         0.245039
 O        -1.364759         3.173106        -0.991357
 C        -2.102181         1.970141        -0.927290
 H         0.128864         0.008969        -0.106176
 H        -3.219281        -0.192617        -1.226336
 H        -3.484362        -0.434396         0.609251
 H        -4.477481         2.162908        -0.054994
 H        -2.938353         1.586868         2.178954
 H        -2.221716         4.098283         1.691762
 H        -1.106184         3.023871         2.319418
 H        -0.858204         4.769683         0.311689
 H         0.301292         3.429067         0.324963
 H        -2.197823         1.535139        -1.984148
