19
Iteration:  2070charge 0 multiplicity 1
 O        -0.515245         0.205842         0.473791
 C        -1.787652         0.899732         0.189019
 C        -3.267269         0.300366        -0.132957
 C        -3.415562         1.832555        -0.102427
 C        -2.500746         1.893727         1.244027
 C        -1.580555         3.196377         1.549368
 C        -0.834129         3.625561         0.222602
 O        -1.365505         3.066751        -1.048643
 C        -2.089603         1.915672        -0.912288
 H        -0.766150        -0.271928         1.311946
 H        -3.307855        -0.200808        -1.079499
 H        -3.664795        -0.387823         0.595092
 H        -4.224896         2.522818        -0.340735
 H        -2.693492         1.371038         2.195514
 H        -2.312028         3.914531         1.995383
 H        -0.794412         3.081462         2.274263
 H        -0.892373         4.659345        -0.018041
 H         0.220028         3.309598         0.233665
 H        -2.360232         1.401854        -1.958553
