19
Iteration:  2210
 O        -0.556285         0.046545         0.268916
 C        -1.807896         0.918216         0.277564
 C        -3.208323         0.283081        -0.048381
 C        -3.365431         1.894761        -0.063634
 C        -2.438585         1.951130         1.193125
 C        -1.760091         3.266407         1.474145
 C        -0.870700         3.607522         0.272858
 O        -1.346463         3.114775        -0.983853
 C        -2.020368         1.861407        -0.923784
 H        -0.489105        -0.418844         1.198171
 H        -3.007003        -0.240115        -1.051827
 H        -3.666025        -0.220225         0.883777
 H        -4.284320         2.600686        -0.067242
 H        -2.805011         1.421824         2.094105
 H        -2.467067         4.054811         1.618861
 H        -1.099992         3.246067         2.430498
 H        -0.931695         4.674116         0.148431
 H         0.206468         3.250151         0.548787
 H        -1.952388         1.385422        -1.855035
