19
Iteration:   186charge 0 multiplicity 1
 O        -0.690378         0.143660         0.508568
 C        -1.807784         0.904520         0.249751
 C        -3.171860         0.359665         0.059916
 C        -3.402862         1.899091        -0.041851
 C        -2.424240         1.978769         1.213360
 C        -1.700023         3.217588         1.377491
 C        -0.837248         3.544798         0.184883
 O        -1.244847         2.982808        -1.051775
 C        -2.090750         1.846242        -0.973395
 H         0.091125         0.476774         0.113125
 H        -3.419855        -0.376530        -0.799519
 H        -3.645012        -0.035110         0.994130
 H        -4.288501         2.421010        -0.216451
 H        -2.993192         1.675838         2.207357
 H        -2.331123         4.110631         1.631382
 H        -0.905736         3.081983         2.224960
 H        -0.942521         4.697636        -0.012236
 H         0.187166         3.246385         0.348374
 H        -2.169424         1.388024        -1.937060
