19
Iteration:  2759charge 0 multiplicity 1
 O        -0.606085         0.098146         0.438818
 C        -1.784312         0.955789         0.250399
 C        -3.151424         0.232826        -0.154625
 C        -3.385928         1.750681        -0.149085
 C        -2.447174         1.937095         1.235324
 C        -1.662265         3.265804         1.475735
 C        -0.826202         3.562663         0.301636
 O        -1.416412         3.245924        -0.963341
 C        -2.047550         1.917444        -0.933096
 H        -1.021626        -0.838263         0.387257
 H        -3.233576        -0.307611        -1.086256
 H        -3.517812        -0.269313         0.703155
 H        -4.249970         2.321984        -0.393261
 H        -2.896415         1.420836         2.180228
 H        -2.300533         4.078864         1.855275
 H        -0.947109         3.015334         2.259443
 H        -0.612688         4.713597         0.346895
 H         0.204719         3.110606         0.489352
 H        -2.004821         1.516220        -1.961900
