19
Iteration:  3126charge 0 multiplicity 1
 O        -0.625893         0.088086         0.558910
 C        -1.787444         0.851640         0.178920
 C        -3.183579         0.303295        -0.182289
 C        -3.422853         1.844686        -0.020239
 C        -2.369849         1.809629         1.221006
 C        -1.685225         3.231541         1.437138
 C        -0.764264         3.648464         0.256165
 O        -1.380624         3.144192        -0.991455
 C        -2.124464         1.986673        -0.939754
 H         0.041510        -0.064975        -0.068493
 H        -3.231393        -0.153976        -1.141398
 H        -3.593153        -0.365286         0.577161
 H        -4.466635         2.333982        -0.134526
 H        -2.849178         1.471471         2.221268
 H        -2.417110         3.992062         1.793918
 H        -0.976118         3.058148         2.337485
 H        -1.016539         4.692210         0.291904
 H         0.268278         3.346432         0.315798
 H        -2.202019         1.587697        -1.975156
