19
Iteration:   445charge 0 multiplicity 1
 O        -0.562046         0.319357         0.450963
 C        -1.851724         0.878922         0.327963
 C        -3.282299         0.334685        -0.045949
 C        -3.364809         1.854285        -0.088836
 C        -2.467526         1.958929         1.259035
 C        -1.713554         3.270920         1.368177
 C        -0.748070         3.462636         0.218680
 O        -1.351398         3.017887        -0.989988
 C        -2.024297         1.792575        -0.886351
 H        -0.437533        -0.328404        -0.261464
 H        -3.357349        -0.060687        -1.037228
 H        -3.902155        -0.239604         0.652338
 H        -4.248473         2.495431        -0.321601
 H        -2.887514         1.586154         2.234784
 H        -2.415785         4.093581         1.575486
 H        -1.068686         3.170897         2.234756
 H        -0.536034         4.552677        -0.002521
 H         0.263067         3.067228         0.368145
 H        -1.963667         1.359714        -1.938862
