19
Iteration:  1385
 O        -0.673561         0.023808         0.488109
 C        -1.747357         0.826046         0.269885
 C        -3.161179         0.280755        -0.111893
 C        -3.362611         1.802804        -0.041083
 C        -2.490385         1.898686         1.202612
 C        -1.609495         3.259218         1.424766
 C        -0.730605         3.578832         0.181904
 O        -1.470145         3.213211        -0.998373
 C        -2.030276         2.010187        -0.940290
 H        -0.240979         0.141642         1.409547
 H        -3.390197        -0.200104        -1.051693
 H        -3.615030        -0.270245         0.720926
 H        -4.252161         2.424447        -0.242753
 H        -3.074443         1.625556         2.124355
 H        -2.522861         3.967766         1.611675
 H        -0.955537         3.110979         2.273675
 H        -0.540085         4.748472         0.103871
 H         0.114400         2.886465         0.096009
 H        -2.239769         1.618696        -2.010492
