19
Iteration:  1934charge 0 multiplicity 1
 O        -0.565839         0.356547         0.426505
 C        -1.794696         0.867291         0.175247
 C        -3.120842         0.252132         0.031611
 C        -3.390288         1.777502        -0.059933
 C        -2.559107         1.992366         1.168028
 C        -1.648900         3.224369         1.418287
 C        -0.685785         3.338645         0.235866
 O        -1.459589         3.225700        -0.972326
 C        -2.101442         1.888547        -0.956994
 H        -0.797689        -0.485034         0.956887
 H        -3.365529        -0.314753        -0.948032
 H        -3.624003        -0.390834         0.798999
 H        -4.305609         2.280941        -0.526453
 H        -2.977844         1.536486         2.095638
 H        -2.256699         4.094236         1.608336
 H        -0.983762         3.055339         2.382231
 H        -0.208908         4.366392         0.439129
 H         0.106272         2.632932         0.425300
 H        -2.164751         1.559650        -1.944846
