19
Iteration:   659charge 0 multiplicity 1
 O        -0.727239        -0.081329         0.593063
 C        -1.775420         0.808436         0.211710
 C        -3.211322         0.327797        -0.037849
 C        -3.279527         1.798919        -0.051808
 C        -2.401135         2.021687         1.168952
 C        -1.623740         3.294870         1.382927
 C        -0.746998         3.610166         0.168832
 O        -1.524124         3.226284        -1.053882
 C        -1.997224         1.880343        -0.940273
 H        -0.043651         0.401249         1.162710
 H        -3.464131        -0.327914        -0.856105
 H        -3.668621        -0.020249         0.911864
 H        -4.249577         2.290306        -0.404810
 H        -2.818155         1.721688         2.100381
 H        -2.359861         4.012908         1.513152
 H        -1.035816         3.210693         2.314807
 H        -0.751666         4.700797         0.161836
 H         0.286162         3.088252         0.261312
 H        -2.052884         1.416221        -1.920976
