19
Iteration:  3691
 O        -0.656139         0.018781         0.527745
 C        -1.770756         0.737942         0.267440
 C        -3.147509         0.271583        -0.253049
 C        -3.338946         1.843128         0.007036
 C        -2.418180         1.852173         1.235773
 C        -1.753657         3.264554         1.456601
 C        -0.842261         3.632526         0.291333
 O        -1.324385         3.229219        -0.991492
 C        -2.044874         2.016240        -0.922269
 H        -0.327005        -0.322291        -0.303154
 H        -3.122422        -0.094721        -1.267211
 H        -3.634304        -0.424199         0.514882
 H        -4.353653         2.286064        -0.268009
 H        -2.783553         1.394697         2.153364
 H        -2.598466         3.993692         1.310562
 H        -1.237626         3.547674         2.361974
 H        -0.922573         4.735546         0.209131
 H         0.214079         3.390888         0.447753
 H        -2.345585         1.829385        -2.017993
