19
Iteration:  4008
 O        -0.541741         0.247919         0.494947
 C        -1.758176         0.897978         0.211720
 C        -3.088147         0.326849        -0.193767
 C        -3.483938         1.807942        -0.103206
 C        -2.470097         1.846475         1.243034
 C        -1.788130         3.244065         1.552795
 C        -0.739322         3.429924         0.321287
 O        -1.351944         3.208366        -1.041597
 C        -2.104207         1.946683        -0.923426
 H        -0.546063        -0.738451         0.324884
 H        -3.286855        -0.016713        -1.228979
 H        -3.595840        -0.362074         0.536862
 H        -4.444368         2.262546        -0.294505
 H        -3.015511         1.488999         2.094730
 H        -2.577305         3.982262         1.715940
 H        -1.111901         3.070729         2.454139
 H        -0.308234         4.381042         0.135528
 H        -0.017058         2.712867         0.428299
 H        -2.206102         1.658163        -2.014338
