19
Iteration:  1799charge 0 multiplicity 1
 O        -0.693511        -0.031746         0.385323
 C        -1.790430         0.779486         0.230680
 C        -3.143914         0.290258         0.032168
 C        -3.363352         1.888866        -0.001883
 C        -2.442129         1.910609         1.220689
 C        -1.775071         3.284789         1.396184
 C        -0.803598         3.668831         0.269664
 O        -1.287387         3.179189        -1.035435
 C        -2.039734         1.924240        -0.958496
 H         0.062561         0.544508         0.403153
 H        -3.443062        -0.329702        -0.871797
 H        -3.601836        -0.248743         0.950649
 H        -4.322081         2.235196        -0.212425
 H        -2.818022         1.361675         2.129409
 H        -2.697622         3.891776         1.578238
 H        -1.142720         3.328324         2.329780
 H        -0.639857         4.751739         0.056928
 H         0.137565         3.137423         0.455417
 H        -2.139054         1.724342        -1.984572
