19
Iteration:  1352charge 0 multiplicity 1
 O        -0.526013         0.259751         0.390649
 C        -1.773850         0.962135         0.214276
 C        -3.237672         0.334949        -0.015293
 C        -3.367457         1.888037        -0.074969
 C        -2.418816         1.890715         1.200579
 C        -1.741559         3.234457         1.450838
 C        -0.756863         3.391639         0.269501
 O        -1.416564         3.068656        -0.969490
 C        -2.046152         1.896976        -0.975681
 H        -0.601175        -0.448185         1.086020
 H        -3.585877        -0.215453        -0.879468
 H        -3.702979        -0.038699         0.906832
 H        -4.331967         2.430439        -0.308108
 H        -3.041567         1.511863         2.041866
 H        -2.527870         4.093089         1.433089
 H        -1.302526         3.329288         2.411275
 H        -0.177444         4.394022         0.181242
 H         0.097230         2.702520         0.298435
 H        -2.227239         1.530767        -2.040724
