19
Iteration:   942charge 0 multiplicity 1
 O        -0.678183         0.006614         0.395727
 C        -1.794775         0.843056         0.128984
 C        -3.183796         0.310481        -0.010293
 C        -3.379326         1.831908         0.041314
 C        -2.394197         1.950341         1.226026
 C        -1.817203         3.397898         1.395082
 C        -0.769268         3.619680         0.280454
 O        -1.305814         3.068698        -0.953787
 C        -2.003784         1.886779        -0.893086
 H        -0.064182        -0.128813        -0.415252
 H        -3.514735        -0.090009        -0.936512
 H        -3.456217        -0.201254         0.921836
 H        -4.175522         2.513048        -0.356632
 H        -2.837739         1.499627         2.169075
 H        -2.734077         3.988683         1.272096
 H        -1.449387         3.603828         2.349305
 H        -0.471995         4.602484         0.076810
 H         0.128639         3.128064         0.497976
 H        -2.168926         1.516885        -1.960541
