19
Iteration:   496charge 0 multiplicity 1
 O        -0.675960         0.147425         0.809695
 C        -1.710766         0.870756         0.239986
 C        -3.133566         0.273758        -0.067306
 C        -3.327444         1.807370        -0.135340
 C        -2.426174         1.949559         1.135129
 C        -1.569780         3.174589         1.419267
 C        -0.727809         3.391569         0.131380
 O        -1.556938         3.322541        -1.073662
 C        -2.141517         2.003825        -0.986532
 H        -0.606814        -0.694676         0.404878
 H        -3.339447        -0.315648        -0.973787
 H        -3.538952        -0.173658         0.896653
 H        -4.304750         2.426175        -0.220380
 H        -3.031080         1.571367         1.980678
 H        -2.335303         3.972533         1.569178
 H        -0.958505         3.115800         2.370696
 H        -0.194034         4.264580         0.052084
 H         0.094385         2.688231        -0.008631
 H        -2.216664         1.706999        -1.974931
