19
Iteration:  2385
 O        -0.639261         0.022816         0.310889
 C        -1.769779         0.850870         0.240122
 C        -3.174057         0.253008        -0.069954
 C        -3.300458         1.835951        -0.125922
 C        -2.356691         1.931209         1.168404
 C        -1.757086         3.316024         1.443183
 C        -0.904985         3.601798         0.309740
 O        -1.384654         3.176012        -0.924459
 C        -2.020555         1.969316        -0.920953
 H        -0.425952        -0.345672         1.192430
 H        -3.380726        -0.543998        -0.800853
 H        -3.587870        -0.309607         0.844789
 H        -4.321925         2.413854        -0.097401
 H        -2.860569         1.560799         2.047406
 H        -2.505395         4.104555         1.586824
 H        -1.107679         3.167257         2.410819
 H        -0.661325         4.668558         0.260102
 H         0.052161         3.086150         0.480401
 H        -2.011173         1.646744        -1.949284
