19
Iteration:  3265charge 0 multiplicity 1
 O        -0.615184         0.021100         0.363686
 C        -1.742138         0.883694         0.214428
 C        -3.185011         0.315008         0.017229
 C        -3.383461         1.850336        -0.113755
 C        -2.473511         1.884807         1.127592
 C        -1.679000         3.125073         1.464478
 C        -0.802739         3.648482         0.326689
 O        -1.446140         3.222743        -0.956089
 C        -2.008804         1.871151        -0.948430
 H         0.111319         0.586403         0.674583
 H        -3.522071        -0.403087        -0.803704
 H        -3.667265        -0.024426         1.044138
 H        -4.051485         2.654018        -0.443895
 H        -3.134008         1.526490         1.902812
 H        -2.409297         3.931202         1.683499
 H        -1.079352         3.126634         2.359774
 H        -0.757313         4.773777         0.410631
 H         0.172011         3.174951         0.230765
 H        -1.985820         1.528570        -1.939018
