19
Iteration:  2870charge 0 multiplicity 1
 O        -0.512145         0.187524         0.326370
 C        -1.776761         0.911009         0.142634
 C        -3.214512         0.283961        -0.011948
 C        -3.362156         1.863598        -0.095950
 C        -2.469456         1.984028         1.195038
 C        -1.794465         3.299820         1.516872
 C        -0.790990         3.427140         0.363016
 O        -1.377523         3.053744        -0.891686
 C        -2.087104         1.869427        -0.955442
 H         0.182957         0.561287        -0.177418
 H        -3.406045        -0.160091        -0.998356
 H        -3.573977        -0.272324         0.819683
 H        -4.193743         2.595270        -0.449717
 H        -3.005069         1.318045         2.009984
 H        -2.587901         4.071340         1.544061
 H        -1.257576         3.432531         2.521052
 H        -0.439142         4.484058         0.035042
 H        -0.062365         2.652386         0.593744
 H        -2.074336         1.512797        -1.994802
