19
Iteration:   843charge 0 multiplicity 1
 O        -0.705304         0.185064         0.601194
 C        -1.784158         0.950548         0.300457
 C        -3.154930         0.336181        -0.083408
 C        -3.361240         1.820987        -0.061166
 C        -2.478069         1.975298         1.201250
 C        -1.612069         3.120148         1.423395
 C        -0.778654         3.548492         0.185407
 O        -1.431796         3.176562        -1.047144
 C        -2.028253         1.851672        -0.929548
 H        -0.451219        -0.378766        -0.154315
 H        -3.172764        -0.069517        -1.082433
 H        -3.567600        -0.441012         0.572105
 H        -4.325211         2.297004        -0.366681
 H        -2.923615         1.623727         2.187480
 H        -2.175360         3.998732         1.853199
 H        -0.933540         2.704271         2.152988
 H        -0.456519         4.591810         0.090041
 H         0.113521         2.899175         0.178793
 H        -2.149157         1.484285        -2.018540
