19
Iteration:  3391
 O        -0.561324         0.233543         0.349571
 C        -1.693364         0.888194         0.160064
 C        -3.153000         0.301969        -0.134477
 C        -3.422575         1.769551        -0.052236
 C        -2.601276         1.882073         1.312675
 C        -1.800828         3.290023         1.421724
 C        -0.738978         3.380597         0.307506
 O        -1.343568         3.210543        -0.939896
 C        -2.028635         1.996061        -0.915841
 H        -0.631124        -0.639624         0.636142
 H        -3.183769        -0.252862        -1.072084
 H        -3.612787        -0.296819         0.603922
 H        -4.386888         2.174715        -0.162300
 H        -2.866263         1.384281         2.256366
 H        -2.561421         4.102201         1.397932
 H        -1.274012         3.530324         2.436068
 H        -0.204991         4.341035         0.206395
 H         0.113833         2.645652         0.596588
 H        -2.244802         1.542217        -1.945701
