19
Iteration:  1496
 O        -0.586061         0.214808         0.382390
 C        -1.748128         0.931922         0.196216
 C        -3.202144         0.294984         0.008372
 C        -3.418415         1.794813         0.015479
 C        -2.455755         1.922097         1.158115
 C        -1.867061         3.273865         1.357408
 C        -0.701621         3.443186         0.282533
 O        -1.234389         3.124833        -0.977601
 C        -2.127329         1.955467        -0.913464
 H        -0.707519        -0.703939         0.439395
 H        -3.438897        -0.194073        -0.909588
 H        -3.628117        -0.287174         0.809235
 H        -4.336381         2.261098        -0.102325
 H        -2.820767         1.468953         2.094221
 H        -2.703834         4.107923         1.549807
 H        -1.264660         3.246514         2.241088
 H        -0.231959         4.515969         0.313034
 H         0.136895         2.761444         0.567666
 H        -2.222661         1.726939        -2.034144
