19
Iteration:  4760charge 0 multiplicity 1
 O        -0.507892         0.232647         0.416442
 C        -1.776337         0.836528         0.158077
 C        -3.138223         0.243890        -0.355837
 C        -3.347484         1.789843        -0.274472
 C        -2.536244         1.814807         1.181753
 C        -1.846745         3.160043         1.617292
 C        -0.837104         3.446688         0.575934
 O        -1.360458         3.298685        -0.822540
 C        -1.989919         2.064542        -0.955749
 H        -0.288668        -0.403971        -0.320239
 H        -3.100227        -0.202122        -1.353638
 H        -3.714334        -0.315115         0.389536
 H        -4.234577         2.392532        -0.575208
 H        -3.227333         1.364475         1.954177
 H        -2.509291         4.039715         1.581596
 H        -1.505886         2.944391         2.640837
 H        -0.619799         4.531805         0.640361
 H         0.029389         2.913292         0.906849
 H        -1.863563         1.693986        -2.019039
