19
Iteration:   257charge 0 multiplicity 1
 O        -0.680485         0.023844         0.419856
 C        -1.800620         0.903474         0.239742
 C        -3.194413         0.303483         0.103436
 C        -3.398615         1.782041        -0.065029
 C        -2.391681         2.009201         1.190044
 C        -1.725084         3.383211         1.370503
 C        -0.810842         3.499844         0.237549
 O        -1.272068         3.107480        -1.071519
 C        -2.083571         1.913687        -0.954392
 H        -0.119553         0.408263         1.071326
 H        -3.398234        -0.408232        -0.639455
 H        -3.592717        -0.076664         1.057511
 H        -4.507153         2.182329        -0.020953
 H        -2.786462         1.643829         2.119211
 H        -2.461010         4.162269         1.386818
 H        -1.124043         3.438077         2.206350
 H        -0.553362         4.487656         0.050988
 H         0.127796         2.859717         0.365463
 H        -2.084086         1.384840        -1.937684
