19
Iteration:  1135
 O        -0.627166         0.075522         0.290051
 C        -1.773589         0.899945         0.184111
 C        -3.212283         0.319274         0.017457
 C        -3.381456         1.824592        -0.019799
 C        -2.481003         1.957628         1.238613
 C        -1.868646         3.360474         1.402729
 C        -0.714512         3.516106         0.318806
 O        -1.250949         3.044558        -0.989434
 C        -2.068626         1.900388        -0.868691
 H         0.165452         0.451298        -0.102212
 H        -3.388575        -0.224397        -0.946078
 H        -3.536982        -0.208987         0.944941
 H        -4.296635         2.404733         0.015755
 H        -2.759155         1.379429         2.141826
 H        -2.559335         4.225821         1.352295
 H        -1.601625         3.454781         2.458032
 H        -0.351716         4.573848         0.075190
 H         0.070854         2.823215         0.589495
 H        -2.287186         1.577823        -1.915977
