19
Iteration:  2602
 O        -0.659722         0.172431         0.399055
 C        -1.829657         0.817091         0.185818
 C        -3.116858         0.282837        -0.143568
 C        -3.359607         1.838020        -0.080561
 C        -2.469406         1.864726         1.264643
 C        -1.665340         3.176971         1.531939
 C        -0.848289         3.632156         0.244861
 O        -1.350475         3.148424        -0.981419
 C        -2.068019         1.948330        -0.938180
 H        -0.346704         0.147084         1.315319
 H        -3.235056        -0.149894        -1.127083
 H        -3.555544        -0.346279         0.656382
 H        -4.306501         2.537007        -0.324501
 H        -3.125251         1.385780         2.133066
 H        -2.300066         4.011765         1.922077
 H        -0.906473         2.849746         2.171738
 H        -0.592172         4.661844         0.165952
 H         0.235194         3.252657         0.335852
 H        -2.019026         1.521875        -2.011184
