19
Iteration:  4653charge 0 multiplicity 1
 O        -0.543932         0.156927         0.335288
 C        -1.751755         0.890537         0.165452
 C        -3.130079         0.243621        -0.241770
 C        -3.330587         1.802574        -0.181688
 C        -2.612833         1.890311         1.131728
 C        -1.903634         3.140174         1.586460
 C        -0.909910         3.570582         0.539458
 O        -1.234369         3.256482        -0.852663
 C        -1.963458         1.974740        -0.923638
 H        -0.378368        -0.178812        -0.561313
 H        -3.166289        -0.358334        -1.189630
 H        -3.626255        -0.230594         0.642693
 H        -4.277811         2.286324        -0.490417
 H        -3.040492         1.307549         1.930642
 H        -2.587588         3.970076         1.863370
 H        -1.369267         2.876197         2.514841
 H        -0.603014         4.654742         0.556654
 H        -0.039354         2.867716         0.808849
 H        -1.823735         1.774667        -2.001358
