19
Iteration:   886
 O        -0.549383         0.440125         0.612785
 C        -1.844556         0.929883         0.172036
 C        -3.259648         0.317590        -0.012672
 C        -3.392078         1.821279        -0.059397
 C        -2.426065         1.905217         1.115002
 C        -1.638784         3.164508         1.458871
 C        -0.691937         3.298906         0.286362
 O        -1.442156         3.132694        -1.002037
 C        -2.097246         1.906445        -1.081973
 H        -0.353996        -0.420584         0.315324
 H        -3.491292        -0.202960        -0.941441
 H        -3.845452        -0.163987         0.786490
 H        -4.279362         2.469171        -0.218526
 H        -2.777840         1.356859         2.055089
 H        -2.258112         4.024491         1.777976
 H        -1.031735         2.876512         2.223807
 H        -0.442412         4.344393         0.228061
 H         0.079523         2.553202         0.323355
 H        -2.128859         1.612463        -2.152836
