19
Iteration:  2785charge 0 multiplicity 1
 O        -0.524876         0.123490         0.514607
 C        -1.814380         0.862727         0.166712
 C        -3.194304         0.293721        -0.112156
 C        -3.322348         1.821157        -0.139188
 C        -2.485190         1.897185         1.152940
 C        -1.661590         3.196746         1.475840
 C        -0.804317         3.514810         0.298856
 O        -1.515348         3.281695        -0.966407
 C        -2.006668         1.947447        -0.929971
 H        -0.653804        -0.907846         0.471997
 H        -3.325079        -0.369438        -1.025106
 H        -3.581541         0.019481         0.924543
 H        -4.179720         2.589317        -0.315450
 H        -2.876500         1.398063         2.028584
 H        -2.401327         3.951276         1.644923
 H        -1.128149         2.972982         2.466119
 H        -0.535654         4.622589         0.297149
 H         0.235828         3.079778         0.421815
 H        -2.043828         1.490638        -1.939176
