19
Iteration:  2728
 O        -0.515875         0.183094         0.424231
 C        -1.782737         0.911738         0.203427
 C        -3.199854         0.332153        -0.134104
 C        -3.315721         1.865534        -0.036186
 C        -2.420364         1.849288         1.227145
 C        -1.803059         3.201714         1.397093
 C        -0.820750         3.503138         0.329546
 O        -1.313033         3.156166        -0.953264
 C        -2.131177         1.933776        -0.961360
 H        -0.775218        -0.704979         0.407187
 H        -3.461827        -0.193990        -1.087632
 H        -3.593564        -0.227914         0.695089
 H        -4.167106         2.544707        -0.105263
 H        -2.843101         1.410008         2.149278
 H        -2.579580         3.925844         1.543116
 H        -1.217597         3.245740         2.367015
 H        -0.824808         4.646288         0.267698
 H         0.175153         3.009596         0.522359
 H        -2.353577         1.480759        -1.898396
