19
Iteration:    77
 O        -0.732533        -0.176737         0.558624
 C        -1.791845         0.796125         0.331610
 C        -3.268124         0.385822         0.070110
 C        -3.280925         1.924035        -0.079269
 C        -2.404898         2.005026         1.237458
 C        -1.520610         3.304981         1.392236
 C        -1.169037         3.923038         0.052729
 O        -1.182553         2.965724        -1.024412
 C        -1.930249         1.821583        -0.941790
 H        -0.510902        -0.399704        -0.386731
 H        -3.526459        -0.129152        -0.896342
 H        -3.764376        -0.083986         0.938170
 H        -4.072810         2.549242        -0.393827
 H        -2.891077         1.625782         2.207420
 H        -2.078158         4.097945         1.917110
 H        -0.617971         3.086575         2.019521
 H        -1.989497         4.714184        -0.138755
 H        -0.129957         4.297594         0.039022
 H        -1.978690         1.400289        -1.896176
