19
Iteration:  1531charge 0 multiplicity 1
 O        -0.544585         0.163511         0.349736
 C        -1.710369         0.913810         0.321743
 C        -3.199515         0.341581        -0.083422
 C        -3.356363         1.837301        -0.130625
 C        -2.462839         1.995404         1.177428
 C        -1.738410         3.264665         1.415897
 C        -0.718996         3.381126         0.243996
 O        -1.505714         3.165806        -0.878503
 C        -2.072788         1.870262        -0.904755
 H        -0.653472        -0.368357         1.129270
 H        -3.156309        -0.038795        -1.108681
 H        -3.802113        -0.245911         0.615038
 H        -4.223841         2.513954        -0.371471
 H        -3.021279         1.605809         2.072994
 H        -2.467319         4.201644         1.493815
 H        -1.206076         3.156609         2.342202
 H        -0.292589         4.344153         0.012086
 H         0.131392         2.666886         0.451927
 H        -1.989969         1.376742        -1.956128
