19
Iteration:    33
 O        -0.768955        -0.075357         0.441505
 C        -1.839569         0.771890         0.226377
 C        -3.385519         0.429949         0.040509
 C        -3.286428         1.929623         0.029251
 C        -2.260590         1.994217         1.187927
 C        -1.457383         3.295629         1.347390
 C        -1.400489         3.882090        -0.077217
 O        -0.953647         2.839808        -0.817770
 C        -1.955648         1.821767        -0.888417
 H        -0.061232         0.383048         0.941470
 H        -3.674552        -0.035295        -0.918681
 H        -3.975503         0.053696         0.902372
 H        -4.122678         2.534077        -0.002421
 H        -2.713165         1.636444         2.167570
 H        -1.895752         3.966704         2.100872
 H        -0.404354         3.078272         1.655464
 H        -2.441004         4.120420        -0.422166
 H        -0.683490         4.711639        -0.210722
 H        -2.022736         1.521597        -1.874770
