19
Iteration:   812
 O        -0.636751        -0.070243         0.552667
 C        -1.763075         0.810547         0.227679
 C        -3.291450         0.339171         0.007803
 C        -3.276319         1.867650        -0.041869
 C        -2.358672         1.918974         1.216911
 C        -1.755170         3.288097         1.384024
 C        -0.799467         3.665699         0.239944
 O        -1.354981         3.177776        -1.008804
 C        -2.059395         1.898229        -1.022356
 H        -0.044824        -0.174714        -0.242802
 H        -3.512308        -0.173119        -0.907695
 H        -3.736725        -0.118721         0.890550
 H        -4.222058         2.444561        -0.180419
 H        -2.828064         1.540127         2.096349
 H        -2.591261         4.056784         1.353485
 H        -1.322489         3.351273         2.453082
 H        -0.694881         4.722647         0.192130
 H         0.183172         3.170805         0.311151
 H        -2.314276         1.718408        -2.102531
