19
Iteration:  2942charge 0 multiplicity 1
 O        -0.603631        -0.000035         0.453593
 C        -1.728459         0.820692         0.218516
 C        -3.244347         0.350232        -0.098267
 C        -3.343480         1.875550        -0.092288
 C        -2.329716         1.826099         1.189208
 C        -1.683943         3.179243         1.484487
 C        -0.916858         3.625395         0.248566
 O        -1.427820         3.242043        -1.001501
 C        -2.033098         1.940890        -0.950992
 H        -0.318294         0.311129         1.335240
 H        -3.248465        -0.165904        -1.114606
 H        -3.739514        -0.225255         0.735899
 H        -4.092696         2.661112        -0.152388
 H        -2.776102         1.433879         2.047225
 H        -2.530531         3.848643         1.783173
 H        -1.208200         3.093397         2.429398
 H        -0.813459         4.687662         0.120257
 H         0.153833         3.147119         0.322506
 H        -2.161623         1.640603        -2.032891
