19
Iteration:  2029
 O        -0.565080         0.067556         0.299146
 C        -1.741652         0.855028         0.189827
 C        -3.314949         0.275339         0.019848
 C        -3.411868         1.850947        -0.078271
 C        -2.396731         1.886072         1.272819
 C        -1.726936         3.274789         1.522719
 C        -0.924688         3.777688         0.218611
 O        -1.199479         3.058805        -1.013890
 C        -2.027265         1.907995        -0.917246
 H        -0.675854        -0.405589         1.095464
 H        -3.542932        -0.352617        -0.879039
 H        -3.747841        -0.237352         0.908403
 H        -4.287446         2.441381        -0.300778
 H        -3.074893         1.338089         1.965077
 H        -2.484808         4.103980         1.729402
 H        -1.051337         3.139074         2.359609
 H        -1.096931         4.913727         0.049034
 H         0.156041         3.486943         0.431650
 H        -2.017450         1.340965        -1.966435
