19
Iteration:  1303
 O        -0.597572         0.315797         0.293925
 C        -1.798002         0.905906         0.180200
 C        -3.180732         0.281534        -0.027831
 C        -3.424353         1.856980        -0.021083
 C        -2.532511         1.939751         1.250915
 C        -1.792795         3.351655         1.386804
 C        -0.736381         3.417652         0.288781
 O        -1.215025         2.987748        -0.943215
 C        -2.104955         1.884220        -0.878076
 H        -0.558457        -0.642450         0.263159
 H        -3.271466        -0.218479        -1.021348
 H        -3.717223        -0.238042         0.785120
 H        -4.370004         2.355693         0.094282
 H        -2.817675         1.496192         2.190138
 H        -2.481917         4.163164         1.385936
 H        -1.234020         3.484086         2.450664
 H        -0.498116         4.427571         0.211560
 H         0.282163         2.944579         0.418763
 H        -2.088679         1.449726        -1.845807
