19
Iteration:   575
 O        -0.609058         0.233914         0.396714
 C        -1.847502         0.830019         0.211868
 C        -3.306928         0.345855         0.094312
 C        -3.386765         1.954502        -0.028203
 C        -2.437033         1.926347         1.197203
 C        -1.742164         3.280992         1.422228
 C        -0.835041         3.674284         0.167459
 O        -1.104671         2.824171        -0.952170
 C        -2.086098         1.821501        -0.924431
 H        -0.198275         0.261954        -0.445300
 H        -3.562129        -0.229389        -0.812281
 H        -3.625164        -0.226350         1.006495
 H        -4.299161         2.590501        -0.123781
 H        -2.884025         1.370536         2.060016
 H        -2.700685         3.910430         1.497024
 H        -1.240702         3.387342         2.401470
 H        -1.111568         4.655976        -0.095270
 H         0.227802         3.659094         0.376099
 H        -2.075225         1.405055        -1.953452
