19
Iteration:   131
 O        -0.637993         0.294735         0.723360
 C        -1.790773         0.918161         0.298385
 C        -3.176879         0.397662        -0.023191
 C        -3.430747         1.950393        -0.097566
 C        -2.455115         1.925647         1.118106
 C        -1.493370         2.994884         1.478461
 C        -0.948550         3.593224         0.103442
 O        -1.323131         2.974126        -1.170543
 C        -2.082817         1.898230        -0.888710
 H        -0.601772        -0.554007         0.245137
 H        -3.313248        -0.137104        -1.030643
 H        -3.771576        -0.021147         0.859120
 H        -4.149893         2.538007        -0.452090
 H        -2.943851         1.398990         2.097240
 H        -1.858345         3.793665         2.170710
 H        -0.629455         2.453476         2.041018
 H        -1.277151         4.735520        -0.076590
 H         0.107150         3.698347        -0.069434
 H        -2.241271         1.384241        -1.786714
