19
Iteration:  3382charge 0 multiplicity 1
 O        -0.530290         0.213974         0.304998
 C        -1.791496         0.916649         0.293341
 C        -3.082233         0.226663        -0.135857
 C        -3.448818         1.782910        -0.034818
 C        -2.570926         1.898130         1.204040
 C        -1.795113         3.341487         1.487001
 C        -0.739938         3.391892         0.358856
 O        -1.309543         3.211086        -0.980773
 C        -2.090150         1.955519        -0.901752
 H        -0.760561        -0.683018         0.269306
 H        -3.233321        -0.244258        -1.079898
 H        -3.541545        -0.214552         0.683124
 H        -4.348742         2.214346        -0.279312
 H        -2.937119         1.550739         2.182394
 H        -2.484747         4.243790         1.390865
 H        -1.377287         3.280438         2.524671
 H        -0.264647         4.387721         0.153935
 H         0.058507         2.574518         0.414717
 H        -2.041955         1.666405        -1.992476
