19
Iteration:  3291charge 0 multiplicity 1
 O        -0.695814         0.045917         0.475368
 C        -1.801943         0.901905         0.240614
 C        -3.117473         0.262587        -0.134240
 C        -3.402773         1.750348        -0.082744
 C        -2.454682         1.933319         1.224455
 C        -1.624706         3.202895         1.530797
 C        -0.835980         3.670834         0.292185
 O        -1.367298         3.173303        -1.002417
 C        -2.094698         1.929168        -0.992150
 H         0.044470         0.601114         0.125274
 H        -3.076981        -0.227440        -1.081525
 H        -3.708238        -0.289860         0.560095
 H        -4.284402         2.460514        -0.371431
 H        -2.867822         1.341231         2.053493
 H        -2.109128         4.018514         2.093506
 H        -0.778501         2.972119         2.318232
 H        -0.832098         4.748202         0.301923
 H         0.242560         3.195206         0.254387
 H        -2.238475         1.581824        -2.060803
