19
Iteration:  2462charge 0 multiplicity 1
 O        -0.486123         0.316580         0.421245
 C        -1.794474         0.882097         0.225123
 C        -3.213964         0.253543        -0.037963
 C        -3.464012         1.794078        -0.100954
 C        -2.492737         1.874697         1.203520
 C        -1.666317         3.142218         1.429385
 C        -0.776893         3.477039         0.299999
 O        -1.322055         3.221512        -0.991087
 C        -2.137027         1.977911        -0.972178
 H        -0.669216        -0.581696         0.568563
 H        -3.314518        -0.427532        -0.936664
 H        -3.841054        -0.204846         0.831410
 H        -4.553532         2.270711        -0.188450
 H        -3.081305         1.535967         2.044920
 H        -2.403813         4.000096         1.591634
 H        -1.003270         3.017079         2.407331
 H        -0.248026         4.433057         0.502315
 H         0.067420         2.722287         0.406184
 H        -2.067844         1.547437        -1.973656
