19
Iteration:  4745charge 0 multiplicity 1
 O        -0.535261         0.124325         0.422250
 C        -1.722410         0.894458         0.123687
 C        -3.095309         0.288779        -0.295274
 C        -3.366451         1.812385        -0.286212
 C        -2.663666         1.893744         1.052122
 C        -1.883692         3.106578         1.617816
 C        -0.764813         3.550930         0.518762
 O        -1.415448         3.288017        -0.698174
 C        -1.935438         1.962842        -0.927520
 H        -0.049363         0.189962        -0.364449
 H        -3.139373        -0.189926        -1.283373
 H        -3.568509        -0.310878         0.489846
 H        -4.335568         2.224482        -0.546062
 H        -3.034558         1.311256         1.892964
 H        -2.664207         3.840272         1.887912
 H        -1.291479         2.901105         2.524553
 H        -0.389707         4.589707         0.532482
 H         0.126833         2.794997         0.344470
 H        -1.860965         1.669152        -1.988090
