19
Iteration:  3486
 O        -0.637208         0.094835         0.558032
 C        -1.793073         0.855627         0.112422
 C        -3.247528         0.275954        -0.183221
 C        -3.326690         1.841822        -0.097177
 C        -2.429641         1.860555         1.166795
 C        -1.678918         3.141126         1.545547
 C        -0.917570         3.742198         0.331501
 O        -1.318226         3.178875        -0.976429
 C        -1.964453         1.897213        -0.920316
 H        -0.261049        -0.313375        -0.290865
 H        -3.322800        -0.212815        -1.219583
 H        -3.799910        -0.367515         0.590121
 H        -4.254202         2.543712        -0.170136
 H        -2.931059         1.406693         2.060589
 H        -2.388410         3.889176         1.898264
 H        -1.041554         3.005907         2.411112
 H        -1.034798         4.818857         0.340012
 H         0.159781         3.589561         0.286180
 H        -2.138551         1.611919        -1.967161
