19
Iteration:  2500
 O        -0.529707         0.174058         0.288332
 C        -1.768704         0.975406         0.243012
 C        -3.147401         0.304336        -0.023895
 C        -3.407635         1.826397        -0.120979
 C        -2.430936         1.930752         1.206540
 C        -1.769097         3.324991         1.434345
 C        -0.782328         3.415718         0.391810
 O        -1.403287         3.147768        -0.907391
 C        -2.113417         1.885164        -0.938901
 H        -0.705449        -0.784729         0.431581
 H        -3.102905        -0.074464        -1.078151
 H        -3.600039        -0.419285         0.646827
 H        -4.349324         2.169740        -0.252699
 H        -2.832316         1.541816         2.178091
 H        -2.504729         4.098071         1.319719
 H        -1.245791         3.554248         2.331956
 H        -0.315361         4.355490         0.144268
 H         0.001519         2.679716         0.556918
 H        -1.979815         1.512610        -1.971528
