19
Iteration:  2387
 O        -0.639994         0.027328         0.314928
 C        -1.774988         0.858249         0.222119
 C        -3.169454         0.247932        -0.065595
 C        -3.313126         1.842726        -0.125920
 C        -2.363805         1.933901         1.172265
 C        -1.744779         3.287726         1.438219
 C        -0.913660         3.597967         0.306598
 O        -1.382618         3.198345        -0.918932
 C        -2.002874         1.958315        -0.920357
 H        -0.441587        -0.374542         1.239121
 H        -3.442638        -0.582569        -0.747936
 H        -3.557534        -0.306300         0.836024
 H        -4.243580         2.409856        -0.117665
 H        -2.894503         1.606989         2.073586
 H        -2.483989         4.034229         1.554023
 H        -1.089133         3.204555         2.364871
 H        -0.662110         4.698631         0.243235
 H         0.037327         3.127084         0.508253
 H        -2.064405         1.578305        -1.924089
