19
Iteration:  4817
 O        -0.595583         0.230630         0.233046
 C        -1.792287         0.815022         0.141865
 C        -3.114365         0.242964        -0.348714
 C        -3.336937         1.819827        -0.215599
 C        -2.511766         1.753159         1.106926
 C        -1.919687         3.186921         1.572970
 C        -0.827271         3.559530         0.562826
 O        -1.285088         3.229557        -0.726116
 C        -1.946289         2.046308        -0.875257
 H        -0.209995         0.258429         1.085838
 H        -2.949900        -0.275136        -1.323829
 H        -3.787809        -0.342589         0.298268
 H        -4.295055         2.282964        -0.470425
 H        -3.011943         1.362175         2.007025
 H        -2.751351         3.897098         1.636018
 H        -1.614435         2.912246         2.573366
 H        -0.568033         4.612777         0.470364
 H         0.007004         2.910788         0.865463
 H        -1.936650         1.666515        -1.892711
