19
Iteration:  2956charge 0 multiplicity 1
 O        -0.612747         0.057691         0.414380
 C        -1.770363         0.852625         0.241487
 C        -3.227430         0.356601        -0.085865
 C        -3.308320         1.849429        -0.085831
 C        -2.475538         1.829312         1.221845
 C        -1.706421         3.103324         1.486546
 C        -0.842814         3.641910         0.222191
 O        -1.430924         3.253405        -1.049109
 C        -1.954325         1.954573        -0.892588
 H        -0.134384         0.137644         1.237580
 H        -3.505698        -0.306937        -0.962148
 H        -3.815327         0.010486         0.731479
 H        -4.411356         2.104794        -0.281466
 H        -2.863683         1.258825         2.135148
 H        -2.417975         4.000551         1.796347
 H        -0.789121         3.036364         2.077483
 H        -0.816827         4.772674         0.412384
 H         0.240822         3.221381         0.310783
 H        -1.964235         1.461311        -1.899167
