19
Iteration:  3805
 O        -0.614478         0.014009         0.520645
 C        -1.702887         0.884606         0.205136
 C        -3.191124         0.322795        -0.093714
 C        -3.354397         1.862053        -0.041111
 C        -2.454491         1.831882         1.228387
 C        -1.791705         3.220888         1.380174
 C        -0.866151         3.509425         0.342112
 O        -1.318181         3.192404        -1.006924
 C        -2.055097         2.034454        -1.017759
 H         0.270321         0.373971         0.329473
 H        -3.345355        -0.077495        -1.120248
 H        -3.609184        -0.286794         0.661740
 H        -4.331180         2.314690        -0.050984
 H        -2.923306         1.505127         2.195770
 H        -2.767657         3.859841         1.439856
 H        -1.193921         3.397984         2.321435
 H        -0.664561         4.611756         0.417225
 H         0.058051         2.974442         0.314596
 H        -2.176405         1.751874        -2.060919
