19
Iteration:  4662
 O        -0.575159         0.214443         0.373019
 C        -1.751103         0.854331         0.128190
 C        -3.150975         0.263553        -0.294471
 C        -3.301538         1.795907        -0.223211
 C        -2.540463         1.789284         1.170883
 C        -1.945799         3.170327         1.596899
 C        -0.814444         3.610274         0.534520
 O        -1.277531         3.208899        -0.879669
 C        -1.964198         2.033200        -0.894301
 H        -0.547935        -0.500290        -0.297595
 H        -3.226710        -0.303155        -1.267738
 H        -3.627905        -0.376634         0.466406
 H        -4.262076         2.324017        -0.286743
 H        -3.071722         1.326102         2.022304
 H        -2.725801         3.919292         1.921286
 H        -1.329345         2.961616         2.497338
 H        -0.656929         4.699006         0.741855
 H         0.178736         3.136953         0.721694
 H        -2.055283         1.573288        -1.929623
