19
Iteration:  2417
 O        -0.549759         0.162907         0.452232
 C        -1.772181         0.858271         0.259348
 C        -3.236368         0.290856        -0.144057
 C        -3.355497         1.835657        -0.114663
 C        -2.412117         1.887927         1.171406
 C        -1.695407         3.156625         1.523848
 C        -0.834081         3.598823         0.265688
 O        -1.399515         3.171175        -1.014651
 C        -2.061742         1.979400        -0.945177
 H        -0.566833        -0.610163         1.000752
 H        -3.333785        -0.215830        -1.114689
 H        -3.767201        -0.211202         0.763633
 H        -4.410694         2.361606        -0.035639
 H        -2.874957         1.452788         2.058272
 H        -2.310785         4.049788         1.852628
 H        -0.965915         2.917600         2.407478
 H        -0.774336         4.676100         0.140558
 H         0.211930         3.195015         0.325560
 H        -2.204324         1.480763        -1.898906
