19
Iteration:  4275charge 0 multiplicity 1
 O        -0.454517         0.096074         0.397564
 C        -1.758134         0.876151         0.190965
 C        -3.302876         0.306783        -0.185412
 C        -3.385886         1.841162        -0.055252
 C        -2.441922         1.818597         1.205663
 C        -1.835422         3.211172         1.445391
 C        -0.824416         3.546704         0.374171
 O        -1.296933         3.214449        -0.940369
 C        -2.082900         1.976461        -0.946627
 H        -0.284437         0.325245         1.324502
 H        -3.336219        -0.145358        -1.168181
 H        -3.721037        -0.349383         0.587667
 H        -4.288867         2.390286        -0.328063
 H        -2.899927         1.307967         1.996403
 H        -2.698565         3.925355         1.389407
 H        -1.285599         3.322059         2.396459
 H        -0.421594         4.553487         0.463998
 H         0.089674         2.908678         0.373836
 H        -2.142670         1.595861        -1.996754
