19
Iteration:  1931charge 0 multiplicity 1
 O        -0.550749         0.361256         0.424920
 C        -1.797326         0.887356         0.202863
 C        -3.128142         0.235888         0.020528
 C        -3.393005         1.793390        -0.066810
 C        -2.570359         2.012124         1.165942
 C        -1.648674         3.190153         1.404355
 C        -0.690029         3.346849         0.226989
 O        -1.455873         3.223801        -0.966584
 C        -2.107462         1.876340        -0.946588
 H        -0.800233        -0.387189         0.906868
 H        -3.389458        -0.306965        -0.920672
 H        -3.533190        -0.444776         0.839168
 H        -4.199798         2.324437        -0.471709
 H        -3.029666         1.513014         2.081916
 H        -2.227438         4.133626         1.639885
 H        -1.079327         2.974900         2.347433
 H        -0.155311         4.308966         0.482821
 H         0.121132         2.602988         0.347574
 H        -2.179355         1.556881        -1.974481
