19
Iteration:  4777charge 0 multiplicity 1
 O        -0.549400         0.317555         0.408868
 C        -1.761440         0.927964         0.113966
 C        -3.075851         0.315391        -0.344946
 C        -3.349815         1.846891        -0.142736
 C        -2.518457         1.727068         1.158231
 C        -1.993496         3.037084         1.525999
 C        -0.847103         3.481588         0.510357
 O        -1.244489         3.253866        -0.815739
 C        -1.985670         2.031201        -0.929050
 H        -0.748361        -0.684453         0.335252
 H        -3.145322        -0.013215        -1.400872
 H        -3.665569        -0.357032         0.298584
 H        -4.338337         2.282960        -0.104199
 H        -2.901296         1.076343         1.927839
 H        -2.865290         3.700360         1.664097
 H        -1.459882         3.118921         2.484127
 H        -0.400302         4.473119         0.582134
 H         0.044575         2.742252         0.733261
 H        -2.024119         1.854149        -2.005230
