19
Iteration:  4612
 O        -0.567678         0.201486         0.274747
 C        -1.783649         0.846106         0.131242
 C        -3.125294         0.196544        -0.259236
 C        -3.388613         1.774885        -0.147128
 C        -2.494659         1.814591         1.165666
 C        -1.906128         3.249756         1.538938
 C        -0.802299         3.458644         0.465294
 O        -1.294361         3.281857        -0.781017
 C        -1.970661         2.005512        -0.943076
 H        -0.297424         0.449076         1.188845
 H        -3.236757        -0.076057        -1.323364
 H        -3.729510        -0.540162         0.311480
 H        -4.262418         2.447491        -0.343090
 H        -2.951634         1.419108         2.083500
 H        -2.752429         3.933811         1.532365
 H        -1.457972         3.343950         2.544811
 H        -0.344409         4.448577         0.610216
 H        -0.062339         2.696873         0.763445
 H        -2.048517         1.720835        -1.988947
