19
Iteration:   730
 O        -0.626922         0.264210         0.443531
 C        -1.810307         0.862857         0.252699
 C        -3.261162         0.303955         0.081865
 C        -3.398503         1.859530        -0.144942
 C        -2.408222         1.942441         1.145583
 C        -1.675195         3.221441         1.434473
 C        -0.690326         3.456322         0.277210
 O        -1.328332         3.063720        -1.042769
 C        -2.126621         1.849947        -0.928685
 H         0.033129         1.045363         0.314384
 H        -3.658369        -0.333826        -0.801652
 H        -3.786212        -0.082378         0.969701
 H        -4.344597         2.334293        -0.211307
 H        -2.925089         1.534889         2.109248
 H        -2.390190         4.139027         1.283346
 H        -1.382376         3.113194         2.456940
 H        -0.494116         4.589820         0.347620
 H         0.242901         2.834240         0.345183
 H        -2.161993         1.342972        -1.942544
