19
Iteration:   169charge 0 multiplicity 1
 O        -0.620140         0.249145         0.603016
 C        -1.873791         0.859123         0.253329
 C        -3.344434         0.264322         0.072072
 C        -3.436820         1.790161        -0.148535
 C        -2.499214         1.976150         1.083232
 C        -1.495116         3.183946         1.455281
 C        -0.729707         3.721732         0.150785
 O        -1.278013         2.980296        -1.027882
 C        -2.110455         1.853658        -0.893987
 H        -0.134250         0.428903        -0.184960
 H        -3.514019        -0.307253        -0.818658
 H        -3.805753        -0.202195         0.918284
 H        -4.435713         2.414465        -0.394196
 H        -2.814703         1.490513         1.941106
 H        -2.119372         3.954358         1.874783
 H        -0.852829         2.835330         2.202166
 H        -0.914858         4.730057        -0.019681
 H         0.364433         3.446050         0.285219
 H        -2.125825         1.472355        -1.960974
