19
Iteration:  3791charge 0 multiplicity 1
 O        -0.588388         0.145452         0.503998
 C        -1.800271         0.838402         0.212536
 C        -3.124093         0.340012        -0.159215
 C        -3.392591         1.866361        -0.037532
 C        -2.423825         1.870165         1.181143
 C        -1.863654         3.204895         1.426942
 C        -0.765347         3.451033         0.274718
 O        -1.324987         3.179378        -0.984062
 C        -2.116265         1.966514        -0.874001
 H         0.043658         0.755143         0.130005
 H        -3.225581        -0.111220        -1.129065
 H        -3.686478        -0.252003         0.597828
 H        -4.275351         2.443259        -0.251282
 H        -2.680485         1.253062         2.059679
 H        -2.501314         4.050435         1.428696
 H        -1.386911         3.182889         2.385467
 H        -0.295050         4.418916         0.150356
 H        -0.011080         2.837513         0.623122
 H        -2.134273         1.501578        -1.900089
