19
Iteration:  3809charge 0 multiplicity 1
 O        -0.629338        -0.023054         0.516971
 C        -1.718647         0.921001         0.195517
 C        -3.186281         0.312653        -0.113807
 C        -3.320373         1.822121        -0.033515
 C        -2.438682         1.845954         1.227718
 C        -1.803962         3.212956         1.422505
 C        -0.869929         3.554386         0.337092
 O        -1.326944         3.202717        -1.024197
 C        -2.045046         2.015118        -1.005505
 H         0.259872         0.339095         0.369952
 H        -3.376962        -0.191585        -1.085890
 H        -3.645217        -0.232350         0.778876
 H        -4.316698         2.379908        -0.044704
 H        -3.066879         1.477649         2.051692
 H        -2.646570         3.938272         1.435835
 H        -1.223142         3.447562         2.346327
 H        -0.641889         4.621632         0.351683
 H         0.201018         3.045490         0.327379
 H        -2.244157         1.808810        -2.069793
