19
Iteration:  4350
 O        -0.633664         0.125925         0.418368
 C        -1.732104         0.874985         0.186406
 C        -3.119600         0.215515        -0.074191
 C        -3.332242         1.841977        -0.195159
 C        -2.525252         1.933927         1.167505
 C        -1.805194         3.143829         1.522594
 C        -0.845124         3.459997         0.385610
 O        -1.414295         3.300033        -0.925095
 C        -1.943884         1.967886        -0.932196
 H         0.077658         0.149636        -0.240957
 H        -3.280439        -0.303601        -1.002827
 H        -3.579583        -0.271591         0.786584
 H        -4.009233         2.663903        -0.392486
 H        -3.082256         1.486235         1.985612
 H        -2.634309         3.802452         1.793281
 H        -1.212490         3.167843         2.470084
 H        -0.621352         4.522532         0.378192
 H         0.041499         2.809396         0.328410
 H        -1.892484         1.630392        -2.016666
