19
Iteration:   537charge 0 multiplicity 1
 O        -0.651597         0.091096         0.607372
 C        -1.833319         0.851697         0.283513
 C        -3.212549         0.290564        -0.031044
 C        -3.365874         1.882195        -0.081348
 C        -2.451009         1.963984         1.182647
 C        -1.643729         3.250708         1.452521
 C        -0.772059         3.617391         0.114463
 O        -1.370914         3.088291        -1.047852
 C        -2.053721         1.868541        -0.917363
 H        -0.208729        -0.213165        -0.234192
 H        -3.369136        -0.202020        -1.013210
 H        -3.663909        -0.265553         0.806872
 H        -4.271747         2.438760        -0.353327
 H        -3.029179         1.747492         2.089599
 H        -2.262539         4.107199         1.593574
 H        -1.052743         3.122513         2.367462
 H        -0.629693         4.784316         0.040992
 H         0.348929         3.320052         0.307786
 H        -2.114288         1.312032        -1.886535
