19
Iteration:  1837charge 0 multiplicity 1
 O        -0.697133        -0.079716         0.252991
 C        -1.749003         0.812876         0.221540
 C        -3.147329         0.375884         0.016484
 C        -3.304564         1.891735        -0.034619
 C        -2.401641         1.908773         1.223566
 C        -1.816780         3.382801         1.459319
 C        -0.907358         3.681309         0.194071
 O        -1.349944         3.144276        -0.964593
 C        -1.960913         1.812491        -0.884091
 H        -0.134654        -0.037693         1.128127
 H        -3.164966        -0.152278        -0.973389
 H        -3.664169        -0.202084         0.763753
 H        -4.432811         2.320608        -0.061939
 H        -2.675886         1.533801         2.194173
 H        -2.571931         4.142153         1.518449
 H        -1.184517         3.495793         2.385391
 H        -0.525892         4.735039         0.050712
 H         0.016343         3.202819         0.626862
 H        -2.056942         1.258509        -1.907871
