19
Iteration:  2196charge 0 multiplicity 1
 O        -0.527380         0.128324         0.249132
 C        -1.734800         0.808300         0.203714
 C        -3.211513         0.337355        -0.013012
 C        -3.353708         1.824200        -0.092231
 C        -2.466918         1.948288         1.262279
 C        -1.773079         3.317662         1.515627
 C        -0.844495         3.639264         0.297931
 O        -1.291270         3.008187        -0.949547
 C        -2.086854         1.904443        -0.943346
 H        -0.528775        -0.391470         1.022094
 H        -3.527241        -0.136330        -0.960079
 H        -3.788352        -0.093811         0.807258
 H        -4.299595         2.271331        -0.404663
 H        -3.047675         1.664689         2.114396
 H        -2.538613         4.033484         1.571356
 H        -1.220437         3.322012         2.472210
 H        -0.725760         4.715296         0.113062
 H         0.166635         3.223798         0.343645
 H        -2.321573         1.574565        -1.945971
