19
Iteration:  1828charge 0 multiplicity 1
 O        -0.703114        -0.124626         0.238269
 C        -1.682740         0.838566         0.283582
 C        -3.183602         0.376628         0.001932
 C        -3.319264         1.851035        -0.048076
 C        -2.369767         1.988850         1.238395
 C        -1.796318         3.386193         1.403986
 C        -0.873316         3.695668         0.279510
 O        -1.392068         3.098849        -0.958662
 C        -1.971971         1.846881        -0.883064
 H        -0.037085         0.029946         1.010937
 H        -3.413223        -0.043498        -0.941395
 H        -3.572791        -0.117325         0.834868
 H        -4.280009         2.240885        -0.519915
 H        -2.696831         1.480182         2.135383
 H        -2.780804         3.880740         1.587801
 H        -1.279903         3.469662         2.301165
 H        -0.724896         4.683702        -0.029110
 H         0.115881         3.217385         0.555605
 H        -2.041877         1.483393        -2.024778
