19
Iteration:  4023
 O        -0.496768         0.286541         0.462147
 C        -1.770341         0.947601         0.157086
 C        -3.227844         0.274929        -0.114341
 C        -3.340271         1.830125        -0.138124
 C        -2.538150         1.961921         1.138375
 C        -1.695053         3.147088         1.546278
 C        -0.864598         3.456165         0.347609
 O        -1.403885         3.134546        -0.929550
 C        -2.030620         1.945967        -0.996025
 H        -0.812587        -0.688415         0.455320
 H        -3.291290        -0.387438        -1.047174
 H        -3.615241        -0.282985         0.743734
 H        -4.270947         2.394318        -0.358377
 H        -2.865029         1.326454         2.000543
 H        -2.231864         4.076284         1.779503
 H        -1.087272         3.014853         2.397950
 H        -0.536224         4.540277         0.427711
 H         0.089337         2.811475         0.476587
 H        -1.962103         1.432083        -1.984291
