19
Iteration:   607charge 0 multiplicity 1
 O        -0.606746         0.080736         0.360003
 C        -1.848492         0.866506         0.321786
 C        -3.297283         0.327794        -0.032019
 C        -3.433145         1.893230         0.026026
 C        -2.498866         1.979169         1.275306
 C        -1.739693         3.334913         1.420726
 C        -0.839794         3.708066         0.095673
 O        -1.123718         2.870453        -1.028990
 C        -2.021534         1.820177        -0.834209
 H         0.031409         0.610865        -0.248214
 H        -3.384032         0.059663        -1.101360
 H        -3.693454        -0.494553         0.615589
 H        -4.356339         2.569904         0.047575
 H        -2.883052         1.517618         2.198901
 H        -2.553188         4.078449         1.675147
 H        -1.067062         3.345778         2.287914
 H        -0.983828         4.678329        -0.092793
 H         0.226409         3.646381         0.458811
 H        -2.096180         1.321333        -1.711516
