19
Iteration:  3257
 O        -0.591641         0.023535         0.343206
 C        -1.772436         0.880810         0.223796
 C        -3.242209         0.335227         0.016437
 C        -3.311321         1.825674        -0.165828
 C        -2.427041         1.901963         1.196293
 C        -1.746413         3.175312         1.508556
 C        -0.805317         3.594671         0.332917
 O        -1.444271         3.227878        -0.980288
 C        -2.049455         1.848720        -0.975673
 H        -0.045849         0.628458         0.800208
 H        -3.273090        -0.288082        -0.846254
 H        -3.695418        -0.076374         0.930623
 H        -4.077531         2.731124        -0.299663
 H        -2.766229         1.377784         2.087085
 H        -2.525434         3.954611         1.537376
 H        -1.031917         3.210480         2.404251
 H        -0.652149         4.676924         0.421628
 H         0.330800         3.192300         0.242279
 H        -2.042173         1.539885        -2.023933
