19
Iteration:  2267
 O        -0.598496         0.227878         0.509165
 C        -1.760338         0.896050         0.190216
 C        -3.162192         0.317850        -0.143167
 C        -3.337776         1.819098        -0.045984
 C        -2.466661         1.885947         1.192266
 C        -1.695552         3.173120         1.463666
 C        -0.755389         3.502157         0.197721
 O        -1.469223         3.199775        -0.930915
 C        -2.045910         1.925084        -0.967123
 H        -0.964785        -0.484740         0.992248
 H        -3.270348        -0.223845        -1.187788
 H        -3.619678        -0.242108         0.772569
 H        -4.346075         2.246906        -0.230008
 H        -2.798727         1.416735         2.163265
 H        -2.368345         4.053063         1.674419
 H        -0.958268         3.056301         2.284769
 H        -0.358902         4.553074         0.159676
 H         0.137698         2.772867         0.154779
 H        -2.280232         1.514550        -1.982412
