19
Iteration:  2682charge 0 multiplicity 1
 O        -0.506854         0.218478         0.295191
 C        -1.744596         0.907645         0.159688
 C        -3.111314         0.220175        -0.058939
 C        -3.453522         1.848515        -0.091981
 C        -2.528223         2.049291         1.198133
 C        -1.767898         3.306368         1.465001
 C        -0.775194         3.438290         0.336701
 O        -1.336077         3.046091        -0.883806
 C        -2.094046         1.965814        -0.882178
 H        -0.634455        -0.736276         0.320787
 H        -3.157188        -0.293813        -0.979444
 H        -3.675703        -0.348946         0.630063
 H        -4.385576         2.201957        -0.360006
 H        -3.005712         1.440218         1.996197
 H        -2.379685         4.191847         1.530490
 H        -1.353547         3.248504         2.440964
 H        -0.503040         4.545759         0.336646
 H         0.002293         2.670752         0.569759
 H        -2.312528         1.748180        -1.881145
