19
Iteration:  4007charge 0 multiplicity 1
 O        -0.549418         0.250605         0.495177
 C        -1.755722         0.890447         0.221294
 C        -3.078738         0.328833        -0.198008
 C        -3.482140         1.803384        -0.098246
 C        -2.468410         1.841822         1.249142
 C        -1.799173         3.239482         1.542079
 C        -0.730010         3.434771         0.314040
 O        -1.351272         3.209859        -1.039574
 C        -2.108345         1.951874        -0.928155
 H        -0.545510        -0.759238         0.305007
 H        -3.269745        -0.016000        -1.201436
 H        -3.621377        -0.363954         0.504557
 H        -4.444069         2.285767        -0.279278
 H        -3.006559         1.486471         2.106026
 H        -2.582026         4.009142         1.707549
 H        -1.115807         3.082377         2.455324
 H        -0.290547         4.379560         0.150646
 H        -0.002705         2.696845         0.437606
 H        -2.232630         1.682917        -1.994278
