19
Iteration:  2379charge 0 multiplicity 1
 O        -0.628955         0.016730         0.284785
 C        -1.740787         0.821516         0.271050
 C        -3.180845         0.273963        -0.054361
 C        -3.313934         1.815615        -0.099611
 C        -2.371346         1.920934         1.166614
 C        -1.803346         3.376468         1.489730
 C        -0.832111         3.614904         0.318207
 O        -1.385380         3.129244        -0.951006
 C        -2.077429         1.969014        -0.939619
 H        -0.414740        -0.266826         1.252062
 H        -3.116645        -0.207450        -1.093659
 H        -3.673901        -0.120698         0.800211
 H        -4.217253         2.293728        -0.150123
 H        -2.799781         1.370963         2.061842
 H        -2.551699         4.163504         1.701122
 H        -1.292834         3.207420         2.378659
 H        -0.620078         4.706814         0.202018
 H         0.090127         3.007675         0.410856
 H        -1.934519         1.724509        -2.031672
