19
Iteration:   911charge 0 multiplicity 1
 O        -0.549792         0.232177         0.453583
 C        -1.840125         0.918080         0.308395
 C        -3.130490         0.314755        -0.043449
 C        -3.424295         1.826140        -0.064130
 C        -2.535339         1.926817         1.250449
 C        -1.725317         3.244615         1.383917
 C        -0.680579         3.401939         0.240293
 O        -1.361585         3.112247        -1.028524
 C        -2.124990         1.959859        -0.881148
 H        -0.373735        -0.328870        -0.283105
 H        -3.231948        -0.162493        -1.008527
 H        -3.681954        -0.188712         0.764598
 H        -4.256990         2.417116        -0.480876
 H        -2.957400         1.575609         2.187388
 H        -2.528725         3.987867         1.461221
 H        -1.153479         3.194857         2.379499
 H        -0.235707         4.365535         0.150603
 H         0.153330         2.642989         0.373750
 H        -2.214814         1.611373        -1.966431
