19
Iteration:  3203charge 0 multiplicity 1
 O        -0.618375         0.167388         0.313214
 C        -1.811243         0.882280         0.230874
 C        -3.138970         0.261450        -0.068680
 C        -3.409733         1.742828        -0.030941
 C        -2.469928         1.841186         1.223059
 C        -1.724445         3.243987         1.404585
 C        -0.729642         3.484988         0.279410
 O        -1.300253         3.187611        -0.973267
 C        -2.156444         2.013752        -0.897594
 H        -0.022334         0.664794         0.895278
 H        -3.323729        -0.223849        -0.988005
 H        -3.597025        -0.174113         0.790688
 H        -4.442009         2.302769         0.093913
 H        -2.930991         1.448730         2.173892
 H        -2.623581         3.862482         1.221559
 H        -1.300488         3.670274         2.381151
 H        -0.243314         4.424943         0.419924
 H         0.128306         2.779655         0.527474
 H        -2.258179         1.642316        -1.947855
