19
Iteration:   359charge 0 multiplicity 1
 O        -0.588724         0.079609         0.451265
 C        -1.749133         0.815456         0.293007
 C        -3.224924         0.320101        -0.049382
 C        -3.342190         1.899426        -0.029075
 C        -2.457413         1.959141         1.201525
 C        -1.704930         3.365609         1.392874
 C        -0.809813         3.514885         0.195170
 O        -1.474741         3.120272        -1.063577
 C        -1.947504         1.872967        -0.890002
 H        -0.716091        -0.626713         1.170135
 H        -3.517862        -0.101021        -1.004192
 H        -3.680311        -0.085216         0.839242
 H        -4.170418         2.527486        -0.141404
 H        -2.831423         1.631360         2.126473
 H        -2.459705         4.154571         1.432894
 H        -1.156626         3.473372         2.294814
 H        -0.231053         4.473274        -0.089577
 H         0.082911         2.807143         0.350854
 H        -2.070516         1.303892        -1.852113
