19
Iteration:  2045
 O        -0.608224         0.176398         0.358742
 C        -1.824312         0.827395         0.280486
 C        -3.238380         0.360392        -0.058416
 C        -3.315081         1.845533        -0.025118
 C        -2.440592         1.901652         1.201587
 C        -1.709949         3.152831         1.416570
 C        -0.916499         3.678952         0.270354
 O        -1.257458         3.071947        -1.062207
 C        -2.021229         1.866558        -0.898820
 H        -0.485880        -0.335343         1.127421
 H        -3.368772        -0.169127        -1.022711
 H        -3.814263        -0.115943         0.749168
 H        -4.215961         2.494129        -0.162428
 H        -2.563875         1.558716         2.225595
 H        -2.468190         3.756011         1.828808
 H        -0.973097         3.085742         2.275211
 H        -1.134059         4.697300         0.083639
 H         0.124204         3.667557         0.414516
 H        -2.248395         1.511482        -1.809416
