19
Iteration:    54
 O        -0.831180        -0.151945         0.446186
 C        -1.809062         0.845184         0.303643
 C        -3.245599         0.461291         0.096018
 C        -3.235150         2.026747        -0.044730
 C        -2.318047         1.995016         1.265093
 C        -1.563361         3.243620         1.427596
 C        -1.386048         3.893319         0.004683
 O        -0.968718         2.863247        -1.044466
 C        -1.929989         1.779822        -0.881840
 H        -0.050411         0.104085        -0.034368
 H        -3.421447        -0.198807        -0.780876
 H        -3.730866         0.058971         1.057817
 H        -4.036515         2.619159        -0.240923
 H        -2.850248         1.586366         2.239100
 H        -2.142009         3.968047         2.045162
 H        -0.553281         3.136630         1.947050
 H        -2.483641         4.214500        -0.290835
 H        -0.588105         4.617403         0.056618
 H        -2.083181         1.279949        -1.765755
