19
Iteration:   796charge 0 multiplicity 1
 O        -0.718006        -0.022629         0.451794
 C        -1.766499         0.779908         0.178030
 C        -3.241336         0.358066         0.046727
 C        -3.347967         1.853974         0.010238
 C        -2.302752         1.863078         1.113756
 C        -1.838635         3.344657         1.299553
 C        -0.813788         3.670538         0.285593
 O        -1.273944         3.145077        -1.003100
 C        -2.015392         1.917824        -0.816672
 H        -0.084434        -0.056946        -0.233646
 H        -3.695272        -0.303324        -0.783783
 H        -3.701628        -0.156072         0.920969
 H        -4.120579         2.593709        -0.041006
 H        -2.545819         1.468034         2.202178
 H        -2.780045         3.913684         1.165698
 H        -1.321837         3.508550         2.191167
 H        -0.725165         4.790507        -0.046212
 H         0.098254         3.098319         0.584593
 H        -1.931824         1.448682        -1.838236
