19
Iteration:  3936charge 0 multiplicity 1
 O        -0.593566         0.146198         0.371162
 C        -1.785855         0.881242         0.243955
 C        -3.170496         0.390849        -0.045843
 C        -3.366856         1.862533        -0.167314
 C        -2.622670         1.913447         1.221900
 C        -1.723932         3.141475         1.538987
 C        -0.831989         3.622455         0.328255
 O        -1.292460         3.094415        -0.977103
 C        -2.025508         1.827123        -0.900149
 H         0.055462         0.435365        -0.377686
 H        -3.205340        -0.275703        -0.934638
 H        -3.549409        -0.139863         0.794788
 H        -4.193034         2.470980        -0.546031
 H        -3.089583         1.378898         2.108261
 H        -2.512052         3.926239         1.675636
 H        -1.173469         2.976995         2.449757
 H        -0.815531         4.762732         0.167350
 H         0.266633         3.244177         0.329432
 H        -1.879000         1.424203        -1.900080
