19
Iteration:  4467charge 0 multiplicity 1
 O        -0.579655         0.169911         0.419308
 C        -1.784333         0.914803         0.190413
 C        -3.166416         0.229026        -0.253361
 C        -3.414489         1.768420        -0.147864
 C        -2.462188         1.827109         1.237576
 C        -1.862584         3.180949         1.435649
 C        -0.753860         3.532869         0.523618
 O        -1.335026         3.242560        -0.874158
 C        -2.004778         1.985374        -0.979267
 H         0.012888         0.323941        -0.359134
 H        -3.239558        -0.283178        -1.247540
 H        -3.766414        -0.188457         0.577020
 H        -4.234552         2.449680        -0.246439
 H        -2.917232         1.307570         2.073715
 H        -2.610728         3.967689         1.448929
 H        -1.374484         3.312889         2.413422
 H        -0.435604         4.584961         0.549511
 H         0.032744         2.806086         0.689303
 H        -2.044838         1.584928        -1.991866
