19
Iteration:  2997
 O        -0.580350         0.225858         0.361439
 C        -1.793158         0.908097         0.146158
 C        -3.170745         0.313272        -0.093695
 C        -3.428337         1.750213        -0.109370
 C        -2.448936         1.866619         1.247442
 C        -1.647482         3.228699         1.497800
 C        -0.790009         3.554186         0.321104
 O        -1.336477         3.093986        -0.937921
 C        -2.158309         1.935666        -0.973170
 H        -0.302134         0.485362         1.316033
 H        -3.647655        -0.053516        -1.081908
 H        -3.644518        -0.234265         0.763665
 H        -4.421110         2.260928        -0.225371
 H        -2.831514         1.427216         2.125278
 H        -2.385992         4.051448         1.655023
 H        -1.177212         2.976318         2.421131
 H        -0.459425         4.519635         0.025063
 H         0.211119         3.054715         0.473808
 H        -2.024329         1.440045        -1.986692
