19
Iteration:  3533charge 0 multiplicity 1
 O        -0.636381         0.057177         0.319549
 C        -1.712168         0.875505         0.193248
 C        -3.102579         0.312719        -0.143598
 C        -3.337549         1.815022        -0.099361
 C        -2.502149         1.927996         1.223856
 C        -1.871243         3.254406         1.550163
 C        -0.815640         3.621985         0.365982
 O        -1.337174         3.168853        -0.969188
 C        -2.021500         1.922768        -0.953500
 H        -0.666812        -0.488971         1.082647
 H        -3.375997        -0.145014        -1.196289
 H        -3.478912        -0.403118         0.603429
 H        -4.177597         2.396986        -0.190530
 H        -2.890072         1.386058         2.090248
 H        -2.477669         4.060921         1.857560
 H        -1.205724         3.125130         2.480140
 H        -0.589768         4.694947         0.299722
 H         0.153986         3.141077         0.467789
 H        -1.957323         1.579813        -2.045256
