19
Iteration:   125
 O        -0.656111         0.236798         0.750137
 C        -1.757720         0.887848         0.227835
 C        -3.174683         0.375304        -0.046626
 C        -3.416302         1.960546        -0.063735
 C        -2.430006         1.939463         1.184893
 C        -1.479973         3.037880         1.484152
 C        -0.994125         3.608568         0.089150
 O        -1.286366         3.003665        -1.200047
 C        -2.113512         1.903506        -0.914864
 H        -0.605169        -0.644157         0.420383
 H        -3.380265        -0.223956        -0.922510
 H        -3.630503        -0.034101         0.828314
 H        -4.372349         2.611283        -0.480267
 H        -2.870352         1.650738         2.065829
 H        -1.943014         3.771007         2.134384
 H        -0.734079         2.552170         2.045164
 H        -1.441798         4.538867         0.113519
 H         0.149223         3.677007         0.132961
 H        -2.289268         1.425840        -1.961635
