19
Iteration:  4089
 O        -0.586854         0.088947         0.427124
 C        -1.754053         0.888234         0.173049
 C        -3.097472         0.284037        -0.210556
 C        -3.424874         1.919589        -0.068801
 C        -2.397063         1.822212         1.261710
 C        -1.736423         3.168928         1.483285
 C        -0.898972         3.524388         0.338530
 O        -1.323617         3.155052        -1.027580
 C        -2.078421         2.007195        -0.912074
 H        -0.460828         0.141582         1.369059
 H        -3.261325        -0.034704        -1.284620
 H        -3.767107        -0.130384         0.553959
 H        -4.310538         2.600937        -0.060547
 H        -2.714595         1.351560         2.229501
 H        -2.626215         3.781535         1.329662
 H        -1.444457         3.415143         2.483412
 H        -0.667560         4.621448         0.437762
 H         0.050825         3.082445         0.443114
 H        -2.174116         1.613156        -1.978777
