19
Iteration:   905
 O        -0.563203         0.303081         0.491534
 C        -1.764698         0.904766         0.240984
 C        -3.160269         0.332630        -0.055952
 C        -3.418559         1.879715        -0.083074
 C        -2.556040         1.942107         1.233736
 C        -1.686444         3.164045         1.431976
 C        -0.703484         3.362786         0.211339
 O        -1.372523         3.120443        -1.017888
 C        -2.116740         1.930093        -0.884903
 H        -0.406963        -0.368674        -0.187498
 H        -3.417350        -0.322075        -0.948299
 H        -3.458201        -0.297180         0.811160
 H        -4.329263         2.425015        -0.330678
 H        -2.991990         1.591270         2.196791
 H        -2.415545         4.006341         1.391294
 H        -1.200552         3.287450         2.419042
 H        -0.315951         4.430830         0.111728
 H        -0.015161         2.521066         0.393473
 H        -2.198175         1.492014        -1.855869
