19
Iteration:  3513
 O        -0.553941         0.066954         0.480628
 C        -1.794890         0.835201         0.140674
 C        -3.195457         0.346959        -0.169146
 C        -3.327173         1.897562        -0.121263
 C        -2.362377         1.796890         1.215490
 C        -1.763908         3.142733         1.470975
 C        -0.970746         3.659963         0.321941
 O        -1.278593         3.198218        -0.973257
 C        -2.025688         1.998064        -0.891974
 H        -0.835407        -0.860086         0.684157
 H        -3.313403        -0.155755        -1.129315
 H        -3.791362        -0.133965         0.568367
 H        -4.264975         2.371043        -0.194878
 H        -2.827373         1.433705         2.124343
 H        -2.645862         3.825945         1.615113
 H        -1.132222         3.251724         2.415687
 H        -0.980684         4.761232         0.464375
 H         0.071554         3.328230         0.354749
 H        -2.262184         1.536338        -1.918567
