19
Iteration:  1299
 O        -0.586952         0.289433         0.312322
 C        -1.803550         0.874859         0.186958
 C        -3.179447         0.273528        -0.024081
 C        -3.379118         1.894330         0.003830
 C        -2.492339         1.939892         1.226800
 C        -1.806771         3.329668         1.385450
 C        -0.756801         3.419981         0.307202
 O        -1.236051         2.999667        -0.960808
 C        -2.114064         1.892001        -0.872417
 H        -0.401711        -0.669455         0.292102
 H        -3.320163        -0.175421        -1.020767
 H        -3.730673        -0.211937         0.813172
 H        -4.314628         2.481617        -0.099629
 H        -2.893168         1.481483         2.189064
 H        -2.438721         4.288733         1.324979
 H        -1.305735         3.450719         2.305000
 H        -0.552602         4.544915         0.234674
 H         0.145354         2.843836         0.490015
 H        -2.226671         1.576999        -2.014411
