19
Iteration:  3692charge 0 multiplicity 1
 O        -0.649543         0.018800         0.528106
 C        -1.774794         0.744433         0.263243
 C        -3.151844         0.266560        -0.258485
 C        -3.334608         1.844023         0.011590
 C        -2.420192         1.850539         1.241253
 C        -1.752721         3.269276         1.451988
 C        -0.842366         3.625834         0.278972
 O        -1.323101         3.223747        -0.979460
 C        -2.048277         2.020728        -0.929669
 H        -0.325397        -0.282056        -0.292415
 H        -3.154231        -0.099179        -1.251548
 H        -3.645804        -0.442022         0.482366
 H        -4.329210         2.289310        -0.261639
 H        -2.795864         1.399938         2.160169
 H        -2.626501         4.031735         1.318532
 H        -1.241086         3.564093         2.356494
 H        -0.921249         4.719250         0.273795
 H         0.240200         3.409486         0.446245
 H        -2.334332         1.794039        -2.001744
