19
Iteration:  2073
 O        -0.523926         0.209167         0.484153
 C        -1.778856         0.887358         0.196094
 C        -3.258810         0.302338        -0.138416
 C        -3.437465         1.807547        -0.101159
 C        -2.485338         1.929589         1.242773
 C        -1.578815         3.197618         1.543635
 C        -0.820782         3.613035         0.242051
 O        -1.369430         3.091002        -1.059740
 C        -2.091888         1.908515        -0.924614
 H        -0.692455        -0.269329         1.263290
 H        -3.355808        -0.253477        -1.098546
 H        -3.723735        -0.355655         0.618011
 H        -4.241291         2.475613        -0.371661
 H        -2.664245         1.324002         2.193933
 H        -2.327873         3.925443         2.003521
 H        -0.800848         2.978145         2.276586
 H        -0.909397         4.721327        -0.029070
 H         0.263475         3.246840         0.306834
 H        -2.424706         1.383825        -1.978189
