19
Iteration:  4354charge 0 multiplicity 1
 O        -0.646192         0.122571         0.436675
 C        -1.746615         0.905302         0.202851
 C        -3.107639         0.213024        -0.110951
 C        -3.307409         1.806192        -0.167968
 C        -2.508173         1.885638         1.151926
 C        -1.822198         3.183130         1.555619
 C        -0.855240         3.461634         0.379535
 O        -1.404284         3.293222        -0.952561
 C        -1.952483         1.991300        -0.944421
 H        -0.002423         0.076825        -0.333868
 H        -3.318566        -0.310701        -1.051880
 H        -3.591505        -0.175879         0.796473
 H        -4.052914         2.610910        -0.367178
 H        -3.019935         1.455172         1.995551
 H        -2.532051         3.990597         1.852971
 H        -1.169550         3.141884         2.420107
 H        -0.574000         4.522643         0.459874
 H         0.001725         2.756295         0.357994
 H        -1.937231         1.654224        -1.967194
