19
Iteration:  3034
 O        -0.501387         0.258226         0.290529
 C        -1.771469         0.899200         0.222244
 C        -3.184231         0.357664        -0.072741
 C        -3.376480         1.812005        -0.050045
 C        -2.437135         1.850272         1.256015
 C        -1.834923         3.215680         1.432259
 C        -0.733139         3.354238         0.298000
 O        -1.370933         3.151551        -0.972679
 C        -2.110850         1.977199        -0.908644
 H        -0.413651        -0.168761         1.191570
 H        -3.301774        -0.115264        -1.055148
 H        -3.582213        -0.191461         0.776049
 H        -4.276916         2.406327        -0.180256
 H        -3.042781         1.571915         2.118391
 H        -2.675908         4.010223         1.267269
 H        -1.319250         3.547139         2.351393
 H        -0.374966         4.411687         0.232892
 H        -0.011139         2.577478         0.665083
 H        -2.256586         1.529409        -1.881916
