19
Iteration:  3571charge 0 multiplicity 1
 O        -0.512404         0.252900         0.278145
 C        -1.784532         0.844620         0.162240
 C        -3.212589         0.276897        -0.078825
 C        -3.349204         1.825084        -0.121924
 C        -2.528590         1.870387         1.183593
 C        -1.843257         3.250482         1.459359
 C        -0.683665         3.393373         0.407427
 O        -1.336742         3.226888        -0.884868
 C        -2.055619         1.897456        -0.947316
 H        -0.203987         0.469263         1.191088
 H        -3.525066        -0.004707        -1.028606
 H        -3.596370        -0.089117         0.877580
 H        -4.480890         2.247136        -0.293827
 H        -3.088906         1.417731         2.026010
 H        -2.648945         4.086929         1.199942
 H        -1.596827         3.120133         2.511672
 H        -0.302811         4.456258         0.433054
 H         0.121259         2.621172         0.653385
 H        -2.190540         1.429039        -1.941279
