19
Iteration:  4390charge 0 multiplicity 1
 O        -0.549312         0.236457         0.504384
 C        -1.787562         0.875147         0.151722
 C        -3.144719         0.219949        -0.336195
 C        -3.336878         1.824033         0.005582
 C        -2.461588         1.802917         1.153909
 C        -1.802541         3.170354         1.419601
 C        -0.800669         3.524821         0.369588
 O        -1.336939         3.208033        -0.889860
 C        -2.086562         2.031086        -0.856603
 H        -0.865730        -0.706504         0.335298
 H        -3.255120        -0.150876        -1.408484
 H        -3.580932        -0.515256         0.389456
 H        -4.123963         2.569260        -0.143631
 H        -2.967647         1.265158         2.080440
 H        -2.407326         4.082629         1.229293
 H        -1.405574         3.124844         2.457394
 H        -0.755778         4.647530         0.421791
 H         0.231054         3.188725         0.509360
 H        -2.233224         1.736097        -1.883612
