19
Iteration:  2887charge 0 multiplicity 1
 O        -0.598424         0.111466         0.304241
 C        -1.743434         0.850816         0.235526
 C        -3.144704         0.307726        -0.041275
 C        -3.322499         1.880194        -0.047008
 C        -2.543098         1.893290         1.258847
 C        -1.811809         3.254487         1.425714
 C        -0.777287         3.452574         0.309241
 O        -1.349313         3.190757        -1.003338
 C        -2.042678         1.907169        -0.878770
 H         0.047119         0.777814         0.203378
 H        -3.351925        -0.295325        -0.950765
 H        -3.718761        -0.159936         0.813549
 H        -4.307143         2.231247        -0.155189
 H        -2.979059         1.574637         2.140557
 H        -2.562096         4.094448         1.392691
 H        -1.382993         3.172724         2.389032
 H        -0.569435         4.488061         0.321866
 H         0.204806         2.876187         0.505120
 H        -2.185937         1.572821        -1.920989
