19
Iteration:  4636
 O        -0.541319         0.087630         0.269979
 C        -1.708037         0.936132         0.147615
 C        -3.075458         0.342431        -0.108438
 C        -3.400124         1.842879        -0.290572
 C        -2.604001         1.892742         1.125269
 C        -1.943786         3.143531         1.578681
 C        -0.806748         3.446054         0.534944
 O        -1.344994         3.200987        -0.796747
 C        -1.943752         1.992580        -0.955843
 H         0.116315         0.642013        -0.093819
 H        -3.130292        -0.235441        -1.031115
 H        -3.478788        -0.319067         0.651718
 H        -4.351366         2.337016        -0.516753
 H        -3.218864         1.446190         1.955507
 H        -2.670273         3.960219         1.677951
 H        -1.462306         3.092087         2.570210
 H        -0.677101         4.488431         0.752803
 H         0.092147         2.933618         0.760535
 H        -1.851226         1.606670        -1.975160
