19
Iteration:  2469charge 0 multiplicity 1
 O        -0.496874         0.300265         0.402483
 C        -1.777366         0.876228         0.168125
 C        -3.233626         0.216338         0.044733
 C        -3.428861         1.826566        -0.130750
 C        -2.502955         1.893284         1.198647
 C        -1.728354         3.157161         1.421686
 C        -0.752515         3.452118         0.325277
 O        -1.330497         3.240706        -0.960995
 C        -2.127245         1.982085        -0.955939
 H        -0.516622        -0.668175         0.562010
 H        -3.323210        -0.253185        -0.897931
 H        -3.612927        -0.260001         0.921956
 H        -4.409699         2.260333        -0.526846
 H        -2.980835         1.405593         2.111091
 H        -2.283008         4.105909         1.590845
 H        -1.110187         3.093633         2.265085
 H        -0.254175         4.404181         0.362376
 H        -0.026812         2.605105         0.393970
 H        -2.227477         1.547311        -2.004926
