19
Iteration:  1815charge 0 multiplicity 1
 O        -0.661921        -0.149607         0.290235
 C        -1.757537         0.871222         0.209444
 C        -3.192134         0.271844         0.033662
 C        -3.286184         1.835124        -0.069716
 C        -2.390563         1.959333         1.214001
 C        -1.810295         3.361040         1.443396
 C        -0.862921         3.662119         0.256957
 O        -1.339922         3.140244        -0.976822
 C        -2.044247         1.918637        -0.883900
 H         0.063357         0.159521         0.772663
 H        -3.326429        -0.375922        -0.850755
 H        -3.670563        -0.130396         0.901681
 H        -4.048748         2.732709        -0.103409
 H        -2.955594         1.702420         2.093585
 H        -2.460557         4.193304         1.315185
 H        -1.329797         3.474656         2.438665
 H        -0.843840         4.785185         0.230735
 H         0.211519         3.354054         0.360463
 H        -2.081979         1.414247        -1.921892
