19
Iteration:  4588
 O        -0.526050         0.256193         0.447955
 C        -1.713077         0.937560         0.153738
 C        -3.045259         0.338197        -0.377124
 C        -3.410472         1.787874        -0.028939
 C        -2.536997         1.719357         1.145445
 C        -1.864865         3.090210         1.496127
 C        -0.783922         3.494527         0.432818
 O        -1.299891         3.214532        -0.884479
 C        -2.072507         2.068424        -0.922629
 H        -0.873040        -0.651222         0.846788
 H        -3.352939        -0.014378        -1.401646
 H        -3.749700        -0.206968         0.303488
 H        -4.318608         2.400487        -0.159883
 H        -2.800743         1.284386         2.090067
 H        -2.668063         3.836898         1.391546
 H        -1.642630         3.116837         2.565832
 H        -0.613698         4.591200         0.485304
 H         0.175742         2.911297         0.678773
 H        -2.399479         1.701487        -1.905332
