19
Iteration:  3792
 O        -0.590764         0.135579         0.508110
 C        -1.791720         0.826225         0.213181
 C        -3.124301         0.344783        -0.148449
 C        -3.397345         1.874341        -0.038694
 C        -2.422919         1.871072         1.183879
 C        -1.863060         3.196185         1.419676
 C        -0.773856         3.450813         0.269973
 O        -1.321994         3.184175        -0.982426
 C        -2.115808         1.976868        -0.885956
 H         0.075725         0.759655         0.125384
 H        -3.234045        -0.096330        -1.134814
 H        -3.667081        -0.257230         0.574904
 H        -4.279883         2.428267        -0.244887
 H        -2.644436         1.252290         2.079455
 H        -2.536575         4.080940         1.422811
 H        -1.376445         3.173654         2.392490
 H        -0.320510         4.448266         0.156351
 H        -0.025227         2.842690         0.648651
 H        -2.118862         1.493340        -1.886040
