19
Iteration:  2279
 O        -0.580861         0.273126         0.446154
 C        -1.788574         0.947490         0.229239
 C        -3.148611         0.253244        -0.086475
 C        -3.408592         1.810568        -0.131390
 C        -2.524181         1.887046         1.283347
 C        -1.628952         3.191367         1.499288
 C        -0.731394         3.383282         0.241826
 O        -1.460605         3.225507        -1.042769
 C        -2.050942         1.951404        -0.928710
 H        -0.652118        -0.613508         0.879103
 H        -3.302044        -0.337990        -1.119140
 H        -3.747289        -0.308348         0.744290
 H        -4.295459         2.411543        -0.183838
 H        -3.064863         1.281397         2.088693
 H        -2.251695         4.181294         1.596841
 H        -1.130728         3.085119         2.459372
 H        -0.578227         4.514532         0.214453
 H         0.300256         2.873780         0.300209
 H        -1.837860         1.579207        -2.018711
