19
Iteration:  1272charge 0 multiplicity 1
 O        -0.522386         0.089382         0.476437
 C        -1.694556         0.910607         0.190363
 C        -3.303828         0.371627        -0.003529
 C        -3.363144         1.860394        -0.073706
 C        -2.376859         1.854751         1.197694
 C        -1.822257         3.282558         1.436984
 C        -0.791327         3.479118         0.252825
 O        -1.388273         3.203312        -1.019628
 C        -2.045997         1.913580        -0.971033
 H        -0.636121        -0.902203         0.522977
 H        -3.539714        -0.182798        -0.913239
 H        -3.829273         0.057505         0.879554
 H        -4.276735         2.462780         0.013943
 H        -2.789525         1.312299         2.029379
 H        -2.530204         4.118052         1.393968
 H        -1.210299         3.400568         2.414493
 H        -0.480999         4.489637         0.241570
 H         0.019289         2.688417         0.369384
 H        -1.971935         1.533728        -1.914947
