19
Iteration:  2270
 O        -0.598368         0.245581         0.495591
 C        -1.758991         0.909673         0.194483
 C        -3.161087         0.304617        -0.136263
 C        -3.346062         1.822891        -0.069049
 C        -2.494050         1.875783         1.231205
 C        -1.688288         3.178376         1.480666
 C        -0.751650         3.473575         0.183897
 O        -1.463696         3.205799        -0.939006
 C        -2.030243         1.922010        -0.968588
 H        -0.980926        -0.520623         0.974821
 H        -3.307165        -0.281023        -1.078678
 H        -3.656381        -0.248356         0.672941
 H        -4.306142         2.217065        -0.136708
 H        -2.826601         1.364724         2.175249
 H        -2.323620         4.148813         1.688198
 H        -1.020682         3.088201         2.301536
 H        -0.367160         4.529623         0.180122
 H         0.176331         2.838528         0.085356
 H        -2.226951         1.535082        -2.060069
