19
Iteration:  2002
 O        -0.626674         0.025604         0.241445
 C        -1.743108         0.867038         0.219429
 C        -3.217856         0.293524         0.064607
 C        -3.335598         1.866690        -0.037376
 C        -2.359714         1.961589         1.213631
 C        -1.801870         3.309123         1.419907
 C        -0.934581         3.753660         0.301000
 O        -1.252679         3.045990        -0.988155
 C        -2.032751         1.851403        -0.871567
 H        -0.772612        -0.624939         0.870559
 H        -3.181372        -0.226115        -0.890563
 H        -3.771924        -0.371698         0.698921
 H        -4.158984         2.504199        -0.490265
 H        -2.765999         1.436515         2.030124
 H        -2.505507         4.082445         1.596853
 H        -1.260590         3.231435         2.412973
 H        -0.910460         4.767768         0.098913
 H         0.103959         3.511842         0.454392
 H        -2.191157         1.430779        -1.851218
