19
Iteration:  4368charge 0 multiplicity 1
 O        -0.606530         0.116252         0.519382
 C        -1.715677         0.895395         0.172274
 C        -3.105592         0.351576        -0.227477
 C        -3.361362         1.802212        -0.132992
 C        -2.468532         1.833054         1.228592
 C        -1.802081         3.230344         1.524776
 C        -0.843324         3.541150         0.395440
 O        -1.363122         3.240486        -0.951633
 C        -2.074178         1.996025        -0.977620
 H        -0.390965        -0.282992        -0.374952
 H        -3.077486        -0.226167        -1.221454
 H        -3.579903        -0.329645         0.526067
 H        -4.441955         1.967681        -0.239643
 H        -2.871423         1.111082         2.081024
 H        -2.559835         4.062733         1.739472
 H        -1.231607         3.002966         2.470034
 H        -0.327292         4.523755         0.234880
 H        -0.046087         2.807557         0.603583
 H        -2.106937         1.597061        -1.987574
