19
Iteration:  2233
 O        -0.609223         0.048735         0.430054
 C        -1.793992         0.865779         0.204686
 C        -3.189247         0.309620        -0.093776
 C        -3.276613         1.786143        -0.019906
 C        -2.457129         1.870382         1.253376
 C        -1.698035         3.209567         1.457940
 C        -0.812741         3.636790         0.207388
 O        -1.403989         3.226493        -1.005449
 C        -2.033833         1.972855        -0.966198
 H        -0.685730        -0.403920         1.241490
 H        -3.299792        -0.259014        -1.102404
 H        -3.652456        -0.065597         0.913116
 H        -4.283493         2.226582        -0.332228
 H        -3.007534         1.380988         2.097298
 H        -2.552549         3.892365         1.609305
 H        -1.058696         3.268160         2.401736
 H        -0.673442         4.708045         0.018984
 H         0.160487         3.123426         0.522356
 H        -2.189550         1.640391        -1.987136
