19
Iteration:  2983
 O        -0.622313         0.158883         0.373752
 C        -1.802641         0.899773         0.199909
 C        -3.138059         0.251049        -0.118708
 C        -3.417920         1.858002        -0.089852
 C        -2.439551         1.977902         1.106918
 C        -1.650565         3.211036         1.552042
 C        -0.785308         3.574994         0.285893
 O        -1.399561         3.080056        -0.918967
 C        -2.106615         1.906038        -0.939870
 H        -0.221210         0.287515         1.206308
 H        -2.992465        -0.325841        -1.008039
 H        -3.717021        -0.325115         0.670564
 H        -4.404447         2.200899        -0.250825
 H        -2.822824         1.444259         2.034746
 H        -2.236682         3.985505         1.887829
 H        -0.829345         3.020206         2.268754
 H        -0.843731         4.640657         0.266715
 H         0.191830         3.180197         0.376391
 H        -2.287161         1.649591        -1.986850
