19
Iteration:  2514
 O        -0.555198         0.162823         0.282213
 C        -1.753067         0.816419         0.246865
 C        -3.132616         0.248593        -0.143741
 C        -3.409067         1.782399        -0.006979
 C        -2.482881         1.961130         1.299223
 C        -1.835110         3.334522         1.437149
 C        -0.733924         3.496888         0.249990
 O        -1.337425         3.160701        -0.974773
 C        -2.058615         1.989163        -0.834276
 H        -0.789050        -0.708991         0.577964
 H        -3.214359        -0.244735        -1.072433
 H        -3.651710        -0.244614         0.683123
 H        -4.290134         2.483502        -0.379814
 H        -2.874433         1.439098         2.222357
 H        -2.583076         4.172519         1.423165
 H        -1.449998         3.309686         2.416726
 H        -0.381180         4.494365         0.312429
 H         0.090115         2.757138         0.465148
 H        -2.300848         1.549243        -1.845833
