19
Iteration:  1777
 O        -0.638907         0.177945         0.517960
 C        -1.718927         0.946247         0.201633
 C        -3.252585         0.291323        -0.115677
 C        -3.404787         1.878317        -0.030654
 C        -2.455298         1.887737         1.201475
 C        -1.664561         3.246006         1.444972
 C        -0.799183         3.487816         0.246891
 O        -1.343861         3.098674        -1.002339
 C        -2.119487         1.896654        -0.927796
 H         0.134602         0.306773        -0.112610
 H        -3.159311        -0.324864        -1.052024
 H        -3.641434        -0.372519         0.736941
 H        -4.275057         2.417539         0.082266
 H        -2.769535         1.267123         2.077527
 H        -2.432203         4.035845         1.542830
 H        -1.075876         3.205998         2.392883
 H        -0.728425         4.572329         0.016726
 H         0.201077         3.066606         0.430615
 H        -2.153841         1.517490        -1.907322
