19
Iteration:  1421
 O        -0.747048         0.050931         0.582262
 C        -1.778970         0.821212         0.207413
 C        -3.203743         0.292144        -0.062988
 C        -3.301048         1.856731        -0.058385
 C        -2.406305         1.884278         1.157291
 C        -1.614950         3.178854         1.505462
 C        -0.909958         3.677655         0.223194
 O        -1.373091         3.157411        -1.058013
 C        -2.023989         1.945953        -0.972140
 H         0.090366         0.326599         0.051376
 H        -3.389570        -0.254019        -1.006064
 H        -3.592928        -0.287004         0.802875
 H        -4.091118         2.559975        -0.167661
 H        -2.849841         1.468060         2.099247
 H        -2.310571         3.928505         1.991301
 H        -0.898066         3.068444         2.234843
 H        -0.752523         4.714132        -0.013854
 H         0.111718         3.348611         0.396889
 H        -2.132563         1.632010        -2.067857
