19
Iteration:  1962
 O        -0.538572         0.146893         0.400498
 C        -1.731584         0.891882         0.213020
 C        -3.188486         0.284718        -0.045988
 C        -3.385675         1.858097        -0.013758
 C        -2.400142         1.919979         1.204842
 C        -1.771076         3.270706         1.394394
 C        -0.760040         3.521884         0.240491
 O        -1.378222         3.153868        -0.990576
 C        -2.143737         1.881270        -0.896345
 H        -0.910398        -0.666472         0.925666
 H        -3.292177        -0.086352        -1.055714
 H        -3.631120        -0.327907         0.749484
 H        -4.117232         2.599354        -0.228330
 H        -2.782700         1.553299         2.180027
 H        -2.686422         3.945895         1.397557
 H        -1.212437         3.341714         2.282628
 H        -0.599753         4.627855         0.208708
 H         0.115688         2.882397         0.543359
 H        -2.236878         1.505658        -2.021106
