19
Iteration:  2165charge 0 multiplicity 1
 O        -0.579815         0.276160         0.267357
 C        -1.786035         0.933071         0.275903
 C        -3.219527         0.294388         0.019790
 C        -3.468423         1.797511        -0.014528
 C        -2.428058         1.849586         1.238032
 C        -1.819870         3.234466         1.407964
 C        -0.755070         3.541388         0.315511
 O        -1.234394         3.051651        -0.986144
 C        -2.025210         1.931843        -1.001929
 H        -0.590788        -0.573960         0.860689
 H        -3.336601        -0.226887        -0.960076
 H        -3.723284        -0.219068         0.895073
 H        -4.460312         2.360119        -0.020911
 H        -2.913193         1.564589         2.142301
 H        -2.579277         3.917984         1.260191
 H        -1.433926         3.466976         2.484265
 H        -0.563598         4.591972         0.213988
 H         0.212193         2.961361         0.428564
 H        -2.145767         1.654491        -1.995734
