19
Iteration:  1903
 O        -0.505689         0.421948         0.424938
 C        -1.829785         0.863489         0.262281
 C        -3.186445         0.329152        -0.047722
 C        -3.428910         1.789724        -0.129372
 C        -2.517615         1.954662         1.242474
 C        -1.597929         3.167521         1.474528
 C        -0.732262         3.369470         0.224733
 O        -1.422928         3.137520        -1.004413
 C        -2.142859         1.862695        -0.935563
 H        -0.589327        -0.177713         1.135015
 H        -3.273271        -0.119830        -1.079311
 H        -3.821841        -0.136291         0.704242
 H        -4.446498         2.225845        -0.529256
 H        -3.011975         1.404728         2.020919
 H        -2.151606         4.051400         1.734484
 H        -0.945527         2.976551         2.371871
 H        -0.301380         4.390951         0.308069
 H         0.180633         2.695505         0.232092
 H        -2.148812         1.435130        -2.021031
