19
Iteration:  4076
 O        -0.616547         0.151329         0.405867
 C        -1.766315         0.870974         0.185564
 C        -3.124006         0.356473        -0.210202
 C        -3.321638         1.863140        -0.031847
 C        -2.455132         1.863199         1.166435
 C        -1.783868         3.200556         1.538010
 C        -0.825141         3.580756         0.307177
 O        -1.355238         3.104846        -0.967110
 C        -2.089076         1.952370        -0.910161
 H        -0.519636         0.033821         1.407378
 H        -3.156666        -0.048180        -1.286234
 H        -3.482358        -0.451669         0.418968
 H        -4.289058         2.296276        -0.239262
 H        -2.937395         1.362415         2.003638
 H        -2.486423         3.972921         1.884830
 H        -1.027667         2.983339         2.341445
 H        -0.626259         4.655644         0.108919
 H         0.062539         3.059840         0.480679
 H        -2.203080         1.516511        -1.979967
