19
Iteration:  3278charge 0 multiplicity 1
 O        -0.670291         0.036925         0.424666
 C        -1.773839         0.834708         0.175716
 C        -3.178522         0.267504        -0.023138
 C        -3.325109         1.846375        -0.150279
 C        -2.498430         1.952664         1.155005
 C        -1.651714         3.155978         1.479508
 C        -0.852540         3.623646         0.249577
 O        -1.411750         3.215087        -0.929046
 C        -2.016700         1.960076        -0.902096
 H         0.185397         0.543701         0.364355
 H        -3.383628        -0.304903        -0.943162
 H        -3.531180        -0.238084         0.943515
 H        -4.450580         2.129873        -0.248879
 H        -2.844119         1.575016         2.106752
 H        -2.298364         3.943635         1.892255
 H        -0.940045         2.682127         2.228905
 H        -0.766180         4.711282         0.101317
 H         0.259470         3.346787         0.431195
 H        -1.960777         1.611855        -1.915387
