19
Iteration:  3766charge 0 multiplicity 1
 O        -0.544034         0.285028         0.391093
 C        -1.827987         0.890605         0.197958
 C        -3.181285         0.248622        -0.077152
 C        -3.458452         1.778740        -0.148485
 C        -2.587136         2.010913         1.241558
 C        -1.723800         3.218294         1.463605
 C        -0.742691         3.363221         0.353055
 O        -1.312895         3.136208        -0.878160
 C        -2.080424         1.903384        -0.980256
 H         0.155784         0.831526        -0.095190
 H        -3.327234        -0.132154        -1.105734
 H        -3.643938        -0.511441         0.634855
 H        -4.484161         2.186924        -0.440995
 H        -2.937973         1.528083         2.152591
 H        -2.155500         4.141347         1.400412
 H        -1.204432         3.257712         2.417927
 H        -0.452492         4.394588         0.214993
 H         0.191734         2.915512         0.679783
 H        -1.811614         1.410048        -1.958928
