19
Iteration:  2795charge 0 multiplicity 1
 O        -0.500109         0.155258         0.537791
 C        -1.703384         0.863299         0.181118
 C        -3.281513         0.270445        -0.152631
 C        -3.362343         1.833562        -0.127776
 C        -2.414830         1.902851         1.197276
 C        -1.722709         3.230153         1.507599
 C        -0.812619         3.519148         0.316403
 O        -1.461183         3.261808        -0.975083
 C        -2.062237         1.920478        -0.982514
 H        -0.731661        -0.822996         0.407254
 H        -3.600825        -0.335746        -1.057328
 H        -3.711124        -0.346254         0.707035
 H        -4.306025         2.470779        -0.394492
 H        -2.861910         1.386969         2.079262
 H        -2.281208         4.085382         1.793715
 H        -0.920847         3.087717         2.323318
 H        -0.490075         4.644977         0.303624
 H         0.044441         2.729604         0.317383
 H        -2.039347         1.684617        -2.049750
