19
Iteration:  1651charge 0 multiplicity 1
 O        -0.619798         0.012937         0.366149
 C        -1.775242         0.791824         0.163024
 C        -3.155028         0.326883         0.028733
 C        -3.396895         1.785863        -0.076756
 C        -2.317590         1.939776         1.150409
 C        -1.782251         3.359189         1.520383
 C        -0.886210         3.714163         0.332399
 O        -1.231768         3.104932        -1.026143
 C        -2.099404         1.908905        -0.948659
 H        -1.055607        -0.868628         0.663772
 H        -3.464048        -0.160761        -0.877438
 H        -3.554545        -0.127667         0.926186
 H        -4.395222         2.335654        -0.187672
 H        -2.812338         1.503017         2.024601
 H        -2.742774         4.074116         1.618552
 H        -1.252773         3.345436         2.476849
 H        -0.737148         4.785343         0.188377
 H         0.139614         3.348847         0.502076
 H        -2.134084         1.682990        -2.111647
