19
Iteration:  3017
 O        -0.534424         0.282764         0.319214
 C        -1.776810         0.853232         0.242752
 C        -3.241344         0.241815        -0.059209
 C        -3.358870         1.930444         0.019078
 C        -2.491740         1.850740         1.196921
 C        -1.811307         3.158596         1.370693
 C        -0.771784         3.421103         0.313197
 O        -1.318935         3.174848        -1.007889
 C        -2.066526         1.954859        -0.907416
 H        -0.219927         0.308606         1.249519
 H        -3.333170        -0.327516        -1.033443
 H        -3.837480        -0.189193         0.830375
 H        -4.313119         2.451368        -0.041381
 H        -2.756797         1.191794         2.084388
 H        -2.519031         3.894551         1.427672
 H        -1.332130         3.211271         2.383716
 H        -0.393068         4.413654         0.494797
 H         0.116510         2.871650         0.202196
 H        -2.132021         1.654194        -1.996161
