19
Iteration:  3180
 O        -0.550093         0.165070         0.341584
 C        -1.774806         0.887623         0.171893
 C        -3.203397         0.296582        -0.012777
 C        -3.382644         1.857982        -0.023119
 C        -2.458047         1.958264         1.119310
 C        -1.758809         3.241942         1.511002
 C        -0.773544         3.422254         0.305483
 O        -1.450114         3.104210        -0.921001
 C        -2.023720         1.901597        -0.997140
 H         0.192879         0.745943         0.512629
 H        -3.517755        -0.108494        -0.901008
 H        -3.695229        -0.113523         0.849528
 H        -4.261804         2.435171        -0.494524
 H        -2.809401         1.516799         2.060140
 H        -2.519708         4.054858         1.696463
 H        -1.161218         3.199381         2.517041
 H        -0.440513         4.444132         0.400333
 H         0.211345         2.884487         0.456454
 H        -2.096792         1.558656        -2.021817
