19
Iteration:  4158charge 0 multiplicity 1
 O        -0.634901         0.128531         0.358505
 C        -1.791984         0.929171         0.226916
 C        -3.114494         0.247456        -0.106411
 C        -3.402374         1.862274        -0.088717
 C        -2.572646         1.957841         1.162511
 C        -1.797995         3.178514         1.491776
 C        -0.824899         3.463066         0.362284
 O        -1.298591         3.183597        -0.994936
 C        -2.000385         1.926765        -0.892923
 H         0.131576         0.803810         0.337858
 H        -3.026201        -0.309589        -1.037695
 H        -3.501434        -0.206277         0.840473
 H        -4.366166         2.276144        -0.373932
 H        -3.034896         1.437131         2.072730
 H        -2.472337         3.985519         1.748936
 H        -1.098504         3.087104         2.297525
 H        -0.452323         4.507189         0.329072
 H         0.111501         2.938964         0.621068
 H        -1.901566         1.431082        -1.818428
