19
Iteration:  1818charge 0 multiplicity 1
 O        -0.667130        -0.155645         0.273574
 C        -1.749316         0.886364         0.224679
 C        -3.187833         0.293322         0.020234
 C        -3.292981         1.818708        -0.068955
 C        -2.364521         1.983184         1.221092
 C        -1.811001         3.360457         1.439890
 C        -0.860043         3.673779         0.278070
 O        -1.357395         3.117523        -0.974601
 C        -2.035278         1.915620        -0.870986
 H         0.099577         0.104919         0.857661
 H        -3.420151        -0.301173        -0.820907
 H        -3.672604        -0.138180         0.860199
 H        -3.984739         2.648015        -0.241584
 H        -2.949468         1.690603         2.095520
 H        -2.598612         4.215791         1.336437
 H        -1.331380         3.453493         2.352816
 H        -0.880168         4.707385         0.186537
 H         0.187976         3.311202         0.310975
 H        -2.044314         1.453234        -1.950291
