19
Iteration:   454charge 0 multiplicity 1
 O        -0.592629         0.335562         0.522848
 C        -1.828495         0.905014         0.256617
 C        -3.269877         0.281804        -0.079216
 C        -3.366781         1.820489        -0.039406
 C        -2.487831         1.961557         1.217861
 C        -1.627364         3.246908         1.394281
 C        -0.738689         3.488342         0.237572
 O        -1.371879         3.051189        -1.053776
 C        -2.040682         1.838079        -0.878649
 H        -0.567370        -0.474364        -0.025280
 H        -3.371026        -0.181739        -1.041145
 H        -3.841146        -0.181729         0.766023
 H        -4.248720         2.457258        -0.457173
 H        -2.879334         1.440127         2.129134
 H        -2.274816         4.171527         1.517473
 H        -1.119925         3.094371         2.365043
 H        -0.542801         4.489159         0.204961
 H         0.131679         2.907594         0.277963
 H        -2.133075         1.317132        -1.841445
