19
Iteration:  1011charge 0 multiplicity 1
 O        -0.658795         0.046581         0.466405
 C        -1.842465         0.836779         0.220265
 C        -3.207383         0.309003        -0.040593
 C        -3.417007         1.907349        -0.104263
 C        -2.423640         1.923103         1.187987
 C        -1.535154         3.162683         1.483228
 C        -0.896854         3.721113         0.209151
 O        -1.316356         3.079748        -1.028741
 C        -2.110162         1.905105        -0.917029
 H        -0.198272         0.416131         1.212513
 H        -3.096531        -0.089219        -1.063594
 H        -3.523013        -0.445520         0.676019
 H        -4.453499         2.314848        -0.290040
 H        -2.988907         1.750333         2.126214
 H        -2.155800         3.872029         2.058704
 H        -0.667897         2.868553         2.188304
 H        -1.018106         4.798750         0.040008
 H         0.171827         3.528955         0.278134
 H        -1.878152         1.501675        -1.994306
