19
Iteration:  2156
 O        -0.572123         0.270828         0.307170
 C        -1.797275         0.936590         0.195473
 C        -3.158211         0.340245        -0.015140
 C        -3.412452         1.770149        -0.052446
 C        -2.458016         1.896749         1.268283
 C        -1.782053         3.240087         1.411294
 C        -0.720263         3.457785         0.331287
 O        -1.271853         3.083405        -1.050033
 C        -2.138410         1.937852        -0.868351
 H        -0.653989        -0.564943         0.887161
 H        -3.348429        -0.180729        -0.971294
 H        -3.683451        -0.236212         0.796718
 H        -4.492101         2.082897        -0.120637
 H        -2.872827         1.322237         2.113679
 H        -2.566194         3.981659         1.170569
 H        -1.436676         3.622185         2.415839
 H        -0.506755         4.491677         0.206101
 H         0.182504         2.989092         0.697117
 H        -2.107300         1.603615        -1.858123
