19
Iteration:  1812charge 0 multiplicity 1
 O        -0.671276        -0.138809         0.302820
 C        -1.756628         0.840752         0.205204
 C        -3.191855         0.259564         0.041380
 C        -3.294008         1.871294        -0.063481
 C        -2.422350         1.937309         1.206228
 C        -1.796713         3.353100         1.438543
 C        -0.857882         3.654825         0.240080
 O        -1.323182         3.164724        -0.980992
 C        -2.045810         1.912282        -0.914406
 H         0.140313         0.301521         0.764416
 H        -3.234311        -0.422526        -0.892231
 H        -3.677667        -0.152617         1.009412
 H        -4.091418         2.649320         0.009592
 H        -2.963550         1.627875         2.140082
 H        -2.452627         4.187844         1.330632
 H        -1.314472         3.487025         2.507265
 H        -0.789057         4.832250         0.214753
 H         0.194278         3.383793         0.442242
 H        -2.116763         1.453436        -1.823478
