19
Iteration:  2597
 O        -0.635725         0.142233         0.370003
 C        -1.835943         0.886530         0.238063
 C        -3.126904         0.296017        -0.126038
 C        -3.355061         1.836963        -0.129059
 C        -2.496234         1.798905         1.249651
 C        -1.699316         3.163132         1.495185
 C        -0.813674         3.678533         0.268171
 O        -1.354217         3.119738        -0.995494
 C        -2.062419         1.961312        -0.885279
 H        -0.388513         0.194051         1.304504
 H        -3.289167        -0.228389        -1.135033
 H        -3.598498        -0.220867         0.722223
 H        -4.207884         2.405329        -0.221179
 H        -3.135896         1.490211         2.030262
 H        -2.198586         4.002452         1.992765
 H        -0.767179         2.865399         2.155644
 H        -0.632240         4.804468         0.216166
 H         0.157000         3.197403         0.208590
 H        -2.026369         1.566239        -1.896823
