19
Iteration:   292charge 0 multiplicity 1
 O        -0.593016         0.290777         0.593964
 C        -1.859595         0.846093         0.323570
 C        -3.306702         0.336283        -0.096234
 C        -3.372148         1.897784        -0.105774
 C        -2.472531         1.951768         1.240327
 C        -1.533126         3.156799         1.444909
 C        -0.795632         3.477039         0.124838
 O        -1.396885         2.997138        -1.091580
 C        -2.057818         1.840875        -0.904771
 H        -0.009790         0.988847         0.353883
 H        -3.394883        -0.098618        -1.033646
 H        -3.830947        -0.131439         0.748928
 H        -4.327237         2.395427        -0.097980
 H        -2.940612         1.632105         2.102011
 H        -2.071273         4.073327         1.548839
 H        -0.938881         3.105300         2.293109
 H        -0.750107         4.557472         0.209114
 H         0.319676         3.223950         0.123590
 H        -2.048594         1.285470        -1.901607
