19
Iteration:  3821
 O        -0.731450        -0.085641         0.471773
 C        -1.730163         0.844021         0.173964
 C        -3.119010         0.286146        -0.110785
 C        -3.288681         1.823277        -0.089472
 C        -2.420107         1.887934         1.184185
 C        -1.825166         3.269690         1.544725
 C        -0.811669         3.680542         0.246004
 O        -1.361936         3.239142        -1.014749
 C        -2.040389         1.949790        -0.911508
 H         0.137528         0.460054         0.443942
 H        -3.296833        -0.340865        -0.987206
 H        -3.568660        -0.178052         0.844978
 H        -4.166975         2.503912        -0.275840
 H        -2.786887         1.300106         2.054598
 H        -2.562942         4.047891         1.557046
 H        -1.344826         3.152088         2.531847
 H        -0.751569         4.746232         0.112565
 H         0.193578         3.191005         0.589750
 H        -2.137189         1.485670        -1.927561
