19
Iteration:  2526charge 0 multiplicity 1
 O        -0.575378         0.138124         0.310201
 C        -1.768954         0.870290         0.159822
 C        -3.153392         0.256845        -0.131276
 C        -3.308740         1.847739         0.068299
 C        -2.570842         1.868489         1.271554
 C        -1.808106         3.248818         1.413777
 C        -0.780936         3.583721         0.300315
 O        -1.293469         3.171051        -1.013320
 C        -2.055657         1.934301        -0.845047
 H        -0.648971        -0.666639         0.846477
 H        -3.352201        -0.202546        -1.055898
 H        -3.619239        -0.342020         0.682505
 H        -4.442721         2.300619         0.132298
 H        -3.072656         1.648720         2.235174
 H        -2.583436         4.072581         1.312188
 H        -1.253570         3.421684         2.337988
 H        -0.455859         4.597676         0.068406
 H         0.194919         3.002442         0.448776
 H        -2.095675         1.627788        -1.908943
