19
Iteration:  3498
 O        -0.634174         0.126507         0.534855
 C        -1.736454         0.814868         0.224690
 C        -3.241311         0.357928        -0.189268
 C        -3.312260         1.853064        -0.044428
 C        -2.405619         1.746354         1.150672
 C        -1.749085         3.134756         1.460577
 C        -0.876317         3.755294         0.300808
 O        -1.336332         3.171949        -0.928988
 C        -1.995311         1.964757        -0.983614
 H        -0.617057        -0.670808         0.050148
 H        -3.493239        -0.050880        -1.264281
 H        -3.697347        -0.217107         0.681067
 H        -4.141844         2.585183        -0.208178
 H        -2.798286         1.203671         2.044875
 H        -2.543784         3.745160         1.763155
 H        -1.075400         2.891014         2.310574
 H        -1.088536         4.758325         0.050138
 H         0.149490         3.584099         0.593706
 H        -1.962029         1.601425        -2.037484
