19
Iteration:  3247
 O        -0.616298         0.073633         0.340620
 C        -1.771119         0.821669         0.198648
 C        -3.242806         0.307885        -0.034691
 C        -3.289264         1.874113        -0.120202
 C        -2.350966         1.883200         1.244101
 C        -1.745160         3.280592         1.499722
 C        -0.845024         3.524530         0.280803
 O        -1.419637         3.202249        -0.971084
 C        -2.039743         1.926754        -0.963349
 H         0.049478         0.463200         0.925429
 H        -3.353941        -0.219950        -0.949059
 H        -3.760088        -0.199686         0.749125
 H        -4.363656         2.261271        -0.250856
 H        -2.708745         1.366274         2.161253
 H        -2.532835         4.037464         1.642897
 H        -1.310196         3.188607         2.548697
 H        -0.653739         4.564780         0.087555
 H         0.120549         2.950227         0.589074
 H        -2.100861         1.474853        -1.980582
