19
Iteration:   697charge 0 multiplicity 1
 O        -0.698209         0.077884         0.631182
 C        -1.746779         0.934975         0.273569
 C        -3.112665         0.275441        -0.105594
 C        -3.361254         1.800965        -0.060766
 C        -2.456240         2.014247         1.227253
 C        -1.616488         3.233331         1.405163
 C        -0.730975         3.382392         0.160704
 O        -1.464857         3.204987        -1.113419
 C        -2.148726         1.956667        -0.922900
 H        -0.109850         0.725352         1.087148
 H        -3.352284        -0.084296        -1.161698
 H        -3.584948        -0.365561         0.653630
 H        -4.359155         2.126923        -0.170008
 H        -2.921231         1.613625         2.193938
 H        -2.136285         4.268849         1.567200
 H        -1.007557         3.088823         2.298684
 H        -0.251031         4.400665         0.124451
 H         0.118259         2.684119         0.062236
 H        -2.314114         1.564540        -1.964391
