19
Iteration:  4658
 O        -0.558771         0.188723         0.355705
 C        -1.749358         0.870837         0.145683
 C        -3.151729         0.246519        -0.277054
 C        -3.297903         1.798170        -0.197891
 C        -2.584485         1.849953         1.145122
 C        -1.930721         3.158868         1.594617
 C        -0.852737         3.601269         0.536346
 O        -1.255693         3.228894        -0.877542
 C        -1.967814         2.003407        -0.902348
 H        -0.504544        -0.367886        -0.506029
 H        -3.191999        -0.373149        -1.156647
 H        -3.607786        -0.301128         0.538683
 H        -4.260985         2.261108        -0.375660
 H        -3.046509         1.301977         2.009213
 H        -2.612706         3.941538         1.935935
 H        -1.357591         2.909864         2.502090
 H        -0.631195         4.636771         0.733310
 H        -0.006044         3.004941         0.792842
 H        -1.923237         1.692300        -1.952886
