19
Iteration:  2873charge 0 multiplicity 1
 O        -0.531529         0.177909         0.322767
 C        -1.782705         0.868851         0.155935
 C        -3.194396         0.313425        -0.019799
 C        -3.349705         1.837854        -0.076241
 C        -2.489532         1.998309         1.210529
 C        -1.823091         3.268830         1.525518
 C        -0.801223         3.437635         0.329729
 O        -1.374117         3.061197        -0.893491
 C        -2.068689         1.897177        -0.956294
 H         0.233305         0.678711        -0.168543
 H        -3.333829        -0.156265        -0.996229
 H        -3.585270        -0.234947         0.910103
 H        -4.074613         2.612920        -0.405698
 H        -2.979262         1.373703         1.946494
 H        -2.509701         4.060567         1.494039
 H        -1.289693         3.470421         2.488320
 H        -0.409184         4.469495         0.070291
 H         0.048068         2.620977         0.460728
 H        -2.097809         1.535434        -1.990999
