19
Iteration:  2799charge 0 multiplicity 1
 O        -0.518443         0.183113         0.534567
 C        -1.657139         0.859706         0.195235
 C        -3.291327         0.280136        -0.131958
 C        -3.375238         1.831521        -0.120641
 C        -2.401528         1.880472         1.194811
 C        -1.731921         3.217225         1.519156
 C        -0.811800         3.527726         0.293514
 O        -1.425177         3.235060        -0.955250
 C        -2.081926         1.941680        -1.006146
 H        -0.747540        -0.701332         0.365913
 H        -3.555504        -0.150784        -1.129397
 H        -3.806083        -0.465724         0.581664
 H        -4.295129         2.304234        -0.349515
 H        -2.855142         1.502551         2.061986
 H        -2.373648         4.094805         1.874046
 H        -0.986296         3.152754         2.290445
 H        -0.437823         4.463611         0.234560
 H        -0.108141         2.761848         0.266191
 H        -2.118123         1.623015        -2.083083
