19
Iteration:  1371charge 0 multiplicity 1
 O        -0.578117         0.100092         0.447363
 C        -1.804605         0.834598         0.237370
 C        -3.241779         0.294390        -0.081087
 C        -3.287384         1.889522        -0.086366
 C        -2.390457         1.939784         1.220502
 C        -1.711386         3.232191         1.400365
 C        -0.801856         3.456383         0.220397
 O        -1.481807         3.270475        -1.018128
 C        -2.061855         1.859792        -0.902790
 H        -0.570344         0.045236         1.411684
 H        -3.230543        -0.164303        -1.092466
 H        -3.791676        -0.213272         0.712840
 H        -4.261100         2.499242        -0.198729
 H        -2.741523         1.452269         2.122946
 H        -2.277240         4.150916         1.582638
 H        -1.032266         3.263681         2.417583
 H        -0.297137         4.450777         0.158204
 H         0.112231         2.798349         0.458845
 H        -1.962057         1.436754        -1.846080
