19
Iteration:  4715charge 0 multiplicity 1
 O        -0.635308         0.117121         0.383290
 C        -1.768123         0.857913         0.163318
 C        -3.077005         0.250084        -0.326596
 C        -3.319692         1.841652        -0.261120
 C        -2.568370         1.777264         1.165654
 C        -1.826612         3.069101         1.708339
 C        -0.862496         3.571599         0.449845
 O        -1.336939         3.340058        -0.852525
 C        -1.967346         2.057046        -0.998438
 H        -0.121134         0.546078         1.136643
 H        -2.971575        -0.268263        -1.277596
 H        -3.609593        -0.270298         0.449307
 H        -4.310735         2.254318        -0.497095
 H        -2.970554         1.096937         1.987621
 H        -2.698447         3.732999         1.770740
 H        -1.218044         3.071524         2.641784
 H        -0.551000         4.596864         0.718389
 H         0.053368         2.969968         0.461142
 H        -1.969392         1.591846        -1.995432
