19
Iteration:  1357charge 0 multiplicity 1
 O        -0.546315         0.234182         0.403368
 C        -1.737733         0.931754         0.228379
 C        -3.249848         0.394729        -0.008040
 C        -3.387115         1.869533        -0.100580
 C        -2.386781         1.892675         1.189172
 C        -1.732609         3.251047         1.447903
 C        -0.765365         3.381468         0.289604
 O        -1.448269         3.119592        -0.993065
 C        -2.048156         1.867216        -0.966922
 H        -0.558823        -0.352665         1.191916
 H        -3.443133        -0.192368        -0.951578
 H        -3.747237        -0.146630         0.833230
 H        -4.164307         2.538778        -0.403701
 H        -2.841829         1.456773         2.097145
 H        -2.530356         3.937701         1.386811
 H        -1.196773         3.328094         2.463240
 H        -0.361984         4.347058         0.256144
 H         0.050216         2.636382         0.271439
 H        -2.195874         1.458793        -1.964177
