19
Iteration:   500charge 0 multiplicity 1
 O        -0.670607         0.133751         0.813464
 C        -1.760483         0.859286         0.234526
 C        -3.124669         0.273767        -0.076537
 C        -3.347295         1.825639        -0.140012
 C        -2.417519         1.930923         1.180517
 C        -1.562532         3.217989         1.430698
 C        -0.693466         3.402666         0.094328
 O        -1.578922         3.334011        -1.062552
 C        -2.097090         1.973039        -0.976435
 H        -0.546816        -0.748502         0.327609
 H        -3.352552        -0.229252        -1.011269
 H        -3.516747        -0.215601         0.805214
 H        -4.238396         2.406464        -0.231871
 H        -3.089830         1.535922         1.966920
 H        -2.346871         3.984338         1.587432
 H        -1.050382         3.088160         2.378211
 H        -0.276570         4.451475         0.004332
 H        -0.018080         2.573098        -0.016705
 H        -2.136084         1.608971        -2.074750
