19
Iteration:  3738
 O        -0.582591         0.261547         0.389143
 C        -1.780145         0.930676         0.183325
 C        -3.192797         0.236171         0.019264
 C        -3.339313         1.834941        -0.188867
 C        -2.554672         1.917995         1.211851
 C        -1.800720         3.144714         1.497045
 C        -0.804928         3.450643         0.392993
 O        -1.289752         3.125122        -0.965245
 C        -2.080272         1.952344        -1.009724
 H         0.144595         0.443847        -0.193360
 H        -3.411695        -0.387922        -0.850237
 H        -3.618988        -0.160441         0.927757
 H        -4.218082         2.426560        -0.235152
 H        -3.131293         1.502405         2.061974
 H        -2.410205         4.165006         1.605850
 H        -1.187154         3.075889         2.415528
 H        -0.388425         4.447564         0.130279
 H         0.135872         2.853606         0.799019
 H        -1.922799         1.564365        -2.011243
