19
Iteration:  2366charge 0 multiplicity 1
 O        -0.564093         0.021081         0.278895
 C        -1.739339         0.861448         0.164282
 C        -3.132302         0.346610        -0.072056
 C        -3.376032         1.824945        -0.001211
 C        -2.473709         1.939277         1.252846
 C        -1.827768         3.317568         1.511351
 C        -0.773002         3.600326         0.317259
 O        -1.337915         3.156764        -0.983482
 C        -2.078267         1.863745        -0.936999
 H        -0.407256        -0.138799         1.186426
 H        -3.387595        -0.121104        -1.095128
 H        -3.754271        -0.392499         0.455838
 H        -4.257612         2.334361        -0.274930
 H        -2.889546         1.510432         2.197979
 H        -2.652099         3.980643         1.420336
 H        -1.323319         3.519175         2.456766
 H        -0.442178         4.654333         0.031712
 H         0.139494         3.101582         0.635194
 H        -2.379222         1.384318        -1.868408
