19
Iteration:  4186charge 0 multiplicity 1
 O        -0.584310         0.231532         0.569957
 C        -1.763395         0.843202         0.174252
 C        -3.244815         0.327984        -0.220799
 C        -3.354865         1.818232        -0.076394
 C        -2.408051         1.815287         1.116792
 C        -1.754851         3.173270         1.470727
 C        -0.744512         3.532653         0.342497
 O        -1.375989         3.136410        -0.941785
 C        -2.112872         1.974794        -0.901553
 H         0.081323         0.273743        -0.136156
 H        -3.342428        -0.120634        -1.242227
 H        -3.820163         0.031672         0.668949
 H        -4.397614         2.147984        -0.277680
 H        -2.853928         1.284271         1.920885
 H        -2.718478         3.777508         1.441450
 H        -1.336728         3.374627         2.514052
 H        -0.407034         4.617501         0.240325
 H         0.288282         3.023336         0.680280
 H        -2.124869         1.604387        -2.014383
