19
Iteration:  3762
 O        -0.515128         0.272787         0.383702
 C        -1.864380         0.901932         0.189252
 C        -3.156003         0.255602        -0.052946
 C        -3.483961         1.778778        -0.150880
 C        -2.575185         2.032656         1.191560
 C        -1.751550         3.200284         1.465096
 C        -0.738016         3.367708         0.357713
 O        -1.300976         3.139192        -0.881343
 C        -2.088513         1.874813        -0.941085
 H        -0.013488         0.879463        -0.138057
 H        -3.282649        -0.165122        -1.094563
 H        -3.636389        -0.327489         0.701006
 H        -4.438234         2.144950        -0.491949
 H        -2.949125         1.486687         2.084982
 H        -2.257768         4.278760         1.516414
 H        -1.178799         3.109293         2.445738
 H        -0.398571         4.451015         0.237740
 H         0.337407         2.832313         0.622089
 H        -1.834927         1.503107        -1.916260
