19
Iteration:  4788
 O        -0.514673         0.270332         0.393576
 C        -1.718282         0.922400         0.027221
 C        -3.079547         0.342092        -0.383236
 C        -3.454669         1.828435        -0.053919
 C        -2.554645         1.703469         1.152757
 C        -1.962400         3.100761         1.557415
 C        -0.863239         3.440113         0.541157
 O        -1.227049         3.209906        -0.872203
 C        -1.941670         2.126259        -0.906659
 H        -0.695821        -0.554617         0.823258
 H        -3.137645        -0.076232        -1.418306
 H        -3.439989        -0.329671         0.432966
 H        -4.387033         2.355052        -0.271172
 H        -2.942915         1.158919         2.007047
 H        -2.711810         3.898643         1.434333
 H        -1.672580         2.890907         2.590649
 H        -0.749532         4.521932         0.573610
 H         0.077524         2.838532         0.895988
 H        -2.164315         1.789293        -1.925749
