19
Iteration:  4941
 O        -0.506752         0.285722         0.306161
 C        -1.764133         0.958067         0.082619
 C        -3.070326         0.275125        -0.253379
 C        -3.413289         1.778808        -0.289569
 C        -2.613391         1.851140         1.057522
 C        -1.927980         3.064537         1.608649
 C        -0.854083         3.453580         0.593292
 O        -1.311680         3.242674        -0.700956
 C        -1.905358         2.067255        -0.968831
 H        -0.840351        -0.586401         0.329377
 H        -2.905030        -0.300721        -1.252939
 H        -3.417790        -0.410799         0.617670
 H        -4.271165         2.444437        -0.591502
 H        -3.117007         1.262965         1.868850
 H        -2.689454         3.829689         1.862450
 H        -1.370530         2.736342         2.571836
 H        -0.632879         4.546191         0.903003
 H         0.025895         2.829115         0.751871
 H        -1.696718         1.556445        -2.004283
