19
Iteration:  2959
 O        -0.621185         0.069395         0.398748
 C        -1.762244         0.857217         0.249555
 C        -3.206004         0.320069        -0.086796
 C        -3.306943         1.854632        -0.087908
 C        -2.507763         1.843594         1.234485
 C        -1.698770         3.102308         1.473904
 C        -0.824335         3.659474         0.233059
 O        -1.424007         3.237873        -1.047916
 C        -1.982641         1.951823        -0.908027
 H        -0.190383         0.180108         1.238885
 H        -3.565137        -0.203049        -0.939793
 H        -3.748838        -0.077696         0.775554
 H        -4.327091         2.183771        -0.311644
 H        -2.916552         1.309138         2.198884
 H        -2.331646         3.923172         1.810020
 H        -0.780307         3.014880         2.143021
 H        -0.829573         4.750718         0.476539
 H         0.134937         3.203095         0.247886
 H        -1.857466         1.457733        -1.857553
