19
Iteration:   532
 O        -0.665970         0.087179         0.629232
 C        -1.816456         0.879033         0.304495
 C        -3.208564         0.285797        -0.084504
 C        -3.353214         1.831053        -0.101468
 C        -2.408316         1.983128         1.168843
 C        -1.599057         3.248734         1.417063
 C        -0.761014         3.596625         0.101941
 O        -1.430361         3.113370        -1.020335
 C        -2.045006         1.873436        -0.861118
 H        -0.285028        -0.236297        -0.164518
 H        -3.369568        -0.158136        -1.067932
 H        -3.745930        -0.256443         0.695231
 H        -4.205243         2.486642        -0.323880
 H        -3.093740         1.870390         2.043378
 H        -2.332614         4.122863         1.546271
 H        -1.068112         3.113756         2.378602
 H        -0.653072         4.659093         0.096270
 H         0.186757         3.217231         0.256582
 H        -2.190512         1.321602        -1.831986
