19
Iteration:  3068
 O        -0.599124         0.185371         0.313415
 C        -1.773388         0.849028         0.233158
 C        -3.139549         0.265738        -0.036913
 C        -3.389149         1.753004        -0.093874
 C        -2.464155         1.970743         1.186525
 C        -1.747397         3.287979         1.422050
 C        -0.724959         3.532682         0.337609
 O        -1.371814         3.159891        -0.912815
 C        -2.109244         1.947957        -0.912718
 H        -0.723737        -0.828932         0.348078
 H        -3.153249        -0.268193        -0.941411
 H        -3.500142        -0.310020         0.803079
 H        -4.359402         2.130117        -0.213313
 H        -3.175842         1.714057         1.934816
 H        -2.584359         3.995972         1.711156
 H        -1.095651         3.180775         2.329409
 H        -0.413188         4.600427         0.212751
 H         0.254092         3.021700         0.411636
 H        -2.134536         1.688208        -1.932847
