19
Iteration:   527charge 0 multiplicity 1
 O        -0.694533         0.096125         0.666697
 C        -1.771336         0.883986         0.329286
 C        -3.213428         0.299478        -0.135506
 C        -3.333665         1.781556        -0.120504
 C        -2.394870         2.012530         1.175518
 C        -1.558063         3.262247         1.345608
 C        -0.763821         3.559864         0.143383
 O        -1.500979         3.148742        -1.000756
 C        -2.041193         1.865037        -0.825204
 H        -0.357240        -0.304213        -0.206780
 H        -3.282101        -0.145993        -1.153206
 H        -3.850593        -0.251808         0.608415
 H        -4.175639         2.508835        -0.300477
 H        -3.002011         1.790194         2.051246
 H        -2.333439         3.989322         1.529945
 H        -0.990642         3.152892         2.284702
 H        -0.706972         4.694206         0.016353
 H         0.257026         2.910183         0.116042
 H        -2.114445         1.488134        -1.834389
