19
Iteration:   258charge 0 multiplicity 1
 O        -0.675686         0.029892         0.422316
 C        -1.798967         0.905105         0.243710
 C        -3.201075         0.305008         0.103965
 C        -3.398217         1.788811        -0.071979
 C        -2.396683         2.008958         1.191039
 C        -1.721121         3.372004         1.371944
 C        -0.822816         3.500598         0.232505
 O        -1.271180         3.100763        -1.071740
 C        -2.081617         1.915266        -0.949918
 H        -0.088717         0.420885         1.074591
 H        -3.398924        -0.372826        -0.646702
 H        -3.609328        -0.100946         1.051473
 H        -4.463347         2.170089        -0.021583
 H        -2.758663         1.641817         2.094762
 H        -2.432106         4.173174         1.401295
 H        -1.106111         3.424695         2.198850
 H        -0.546943         4.500675         0.069975
 H         0.102171         2.842766         0.353458
 H        -2.100379         1.382719        -1.945097
