19
Iteration:  1543charge 0 multiplicity 1
 O        -0.592236         0.170567         0.400561
 C        -1.822718         0.881146         0.185171
 C        -3.147433         0.294746        -0.072610
 C        -3.377806         1.808359        -0.100870
 C        -2.534447         1.984828         1.172436
 C        -1.650228         3.252740         1.442200
 C        -0.737216         3.492090         0.285976
 O        -1.445182         3.167941        -0.968614
 C        -2.026570         1.910289        -0.888769
 H        -0.534225        -0.212089         1.292202
 H        -3.325419        -0.310824        -0.986998
 H        -3.644907        -0.203096         0.792641
 H        -4.418387         2.201539        -0.431841
 H        -2.862102         1.572354         2.165491
 H        -2.254472         4.182932         1.758731
 H        -1.063269         2.977284         2.325783
 H        -0.300265         4.451845         0.263471
 H         0.035508         2.668369         0.284271
 H        -2.075983         1.499646        -1.959753
