19
Iteration:  1239
 O        -0.678956         0.053326         0.569053
 C        -1.760588         0.890037         0.325114
 C        -3.080223         0.258645        -0.126716
 C        -3.439926         1.800357        -0.148466
 C        -2.429325         1.954276         1.176023
 C        -1.591503         3.214027         1.520069
 C        -0.730092         3.682311         0.170016
 O        -1.465919         3.192517        -1.007437
 C        -2.134798         1.955538        -0.939717
 H        -0.930065        -0.811802         0.312050
 H        -3.009879        -0.277357        -1.080585
 H        -3.740032        -0.312892         0.495098
 H        -4.411072         2.290737        -0.196778
 H        -3.037809         1.514027         1.930602
 H        -2.097969         4.097599         1.811938
 H        -0.838158         2.828817         2.282865
 H        -0.498368         4.694520         0.023941
 H         0.345467         3.219526         0.277562
 H        -2.068561         1.494749        -1.848434
