19
Iteration:   356
 O        -0.603178         0.103584         0.474949
 C        -1.742886         0.840909         0.295350
 C        -3.223279         0.331599        -0.053450
 C        -3.334065         1.887258        -0.065018
 C        -2.434054         1.956441         1.205367
 C        -1.706056         3.360596         1.394263
 C        -0.786612         3.519060         0.208520
 O        -1.476701         3.118507        -1.084125
 C        -1.977881         1.862192        -0.882096
 H        -0.710519        -0.684295         1.044447
 H        -3.517668        -0.213290        -0.923865
 H        -3.680644        -0.103314         0.884430
 H        -4.267854         2.615529        -0.177824
 H        -2.805114         1.502725         2.147816
 H        -2.449556         4.132317         1.545726
 H        -1.103296         3.312405         2.287230
 H        -0.326281         4.415670        -0.036682
 H         0.052652         2.793781         0.301299
 H        -2.052561         1.309305        -1.862006
