19
Iteration:  3978
 O        -0.604435         0.154324         0.532405
 C        -1.751729         0.880863         0.135110
 C        -3.113434         0.256401        -0.172212
 C        -3.459952         1.836587        -0.045167
 C        -2.382946         1.839964         1.217572
 C        -1.816050         3.231106         1.376643
 C        -0.721223         3.438478         0.342320
 O        -1.381294         3.254291        -0.937087
 C        -2.064524         1.997666        -0.879032
 H        -0.346802        -0.446734        -0.226618
 H        -3.522605        -0.153158        -1.154473
 H        -3.427616        -0.422731         0.619254
 H        -4.408283         2.358094        -0.135387
 H        -2.949098         1.532574         2.117915
 H        -2.578450         3.955532         1.047124
 H        -1.525246         3.615816         2.337856
 H        -0.421023         4.551763         0.355409
 H         0.248772         2.806299         0.481504
 H        -2.173485         1.623254        -1.956297
