19
Iteration:  4152charge 0 multiplicity 1
 O        -0.666467         0.132284         0.317902
 C        -1.762134         0.958342         0.255572
 C        -3.039643         0.296236        -0.073664
 C        -3.389435         1.825370        -0.146062
 C        -2.577282         1.945538         1.175111
 C        -1.803361         3.177529         1.537071
 C        -0.806093         3.493013         0.354480
 O        -1.309199         3.153457        -0.974943
 C        -2.008569         1.926568        -0.896366
 H         0.074557         0.671834         0.444491
 H        -3.181865        -0.307998        -0.999217
 H        -3.648801        -0.152998         0.704678
 H        -4.389562         2.211894        -0.381516
 H        -3.060879         1.575831         2.050919
 H        -2.568609         3.979032         1.721458
 H        -1.124836         3.055866         2.453103
 H        -0.479734         4.503566         0.084427
 H         0.075615         2.770810         0.564423
 H        -2.045982         1.376783        -1.902213
