19
Iteration:   904charge 0 multiplicity 1
 O        -0.564903         0.312428         0.497175
 C        -1.754503         0.904640         0.228360
 C        -3.168999         0.330245        -0.056445
 C        -3.416674         1.887486        -0.084235
 C        -2.555217         1.943777         1.231129
 C        -1.684572         3.155787         1.434629
 C        -0.712035         3.357580         0.209303
 O        -1.374380         3.122231        -1.015644
 C        -2.113310         1.925507        -0.886968
 H        -0.422189        -0.353636        -0.152152
 H        -3.430282        -0.331279        -0.944875
 H        -3.435907        -0.298175         0.816054
 H        -4.342170         2.416743        -0.292951
 H        -2.992423         1.588556         2.170072
 H        -2.384904         4.020810         1.383383
 H        -1.182697         3.293414         2.460041
 H        -0.319065         4.426858         0.116740
 H         0.003152         2.498194         0.391470
 H        -2.197181         1.460343        -1.853353
