19
Iteration:  2651
 O        -0.566329         0.248266         0.361107
 C        -1.819186         0.885902         0.210159
 C        -3.188330         0.181764        -0.063780
 C        -3.315414         1.845301        -0.072513
 C        -2.461455         1.917847         1.220427
 C        -1.773176         3.201442         1.431491
 C        -0.793018         3.414806         0.351471
 O        -1.393028         3.250056        -1.001502
 C        -2.000811         1.961394        -0.918083
 H        -0.685944        -0.574506         0.924819
 H        -3.295032        -0.262625        -1.085532
 H        -3.745342        -0.216433         0.760674
 H        -4.193983         2.382797        -0.202349
 H        -2.962793         1.439578         2.011815
 H        -2.466223         4.013525         1.298862
 H        -1.193313         3.215929         2.420799
 H        -0.334690         4.436377         0.555315
 H         0.080096         2.789632         0.259469
 H        -2.230319         1.637699        -1.907861
