19
Iteration:  4608
 O        -0.543298         0.202908         0.303267
 C        -1.784770         0.853697         0.114363
 C        -3.156353         0.216511        -0.277605
 C        -3.413568         1.782794        -0.140595
 C        -2.475440         1.802772         1.192178
 C        -1.909493         3.236350         1.515635
 C        -0.785062         3.458941         0.457650
 O        -1.296800         3.266893        -0.803709
 C        -1.987503         2.023720        -0.921239
 H        -0.454686         0.286244         1.270833
 H        -3.125267         0.021043        -1.388278
 H        -3.583770        -0.638971         0.301804
 H        -4.337304         2.356089        -0.259730
 H        -2.946247         1.363042         2.066056
 H        -2.779281         3.939830         1.527885
 H        -1.403179         3.401562         2.482526
 H        -0.440057         4.478110         0.698806
 H        -0.001031         2.671960         0.756204
 H        -1.933676         1.837010        -2.034540
