19
Iteration:  2520
 O        -0.575124         0.156315         0.295327
 C        -1.750340         0.838245         0.190521
 C        -3.133913         0.237362        -0.163356
 C        -3.364064         1.812303         0.064545
 C        -2.542801         1.918000         1.287318
 C        -1.840682         3.289329         1.428774
 C        -0.748967         3.550623         0.254907
 O        -1.306263         3.168764        -0.997518
 C        -2.055442         1.956773        -0.816861
 H        -0.681338        -0.776068         0.717882
 H        -3.288688        -0.359580        -1.141186
 H        -3.680182        -0.136262         0.721306
 H        -4.213098         2.356618        -0.096146
 H        -3.002311         1.624968         2.234185
 H        -2.490192         4.156742         1.366333
 H        -1.405815         3.347655         2.499214
 H        -0.351625         4.612254         0.177628
 H         0.054684         2.834098         0.346871
 H        -2.195893         1.637621        -1.841977
