19
Iteration:   823
 O        -0.653469        -0.013781         0.574896
 C        -1.763671         0.807383         0.260505
 C        -3.181088         0.313050        -0.071970
 C        -3.335560         1.889246        -0.115424
 C        -2.431846         1.932618         1.240640
 C        -1.661348         3.300306         1.492468
 C        -0.834833         3.555766         0.214112
 O        -1.409245         3.151718        -1.055921
 C        -2.078780         1.977462        -0.978394
 H        -0.206375        -0.227022        -0.209573
 H        -3.353215        -0.319951        -0.909274
 H        -3.711521        -0.065875         0.805448
 H        -4.188665         2.602119        -0.222918
 H        -2.764125         1.485932         2.146132
 H        -2.427745         4.139972         1.599086
 H        -0.911093         3.355455         2.381091
 H        -0.739019         4.579804        -0.004446
 H         0.209104         3.179758         0.321533
 H        -2.060054         1.474625        -2.003816
