19
Iteration:   850charge 0 multiplicity 1
 O        -0.660164         0.269035         0.632056
 C        -1.793619         0.894336         0.275268
 C        -3.191113         0.290133        -0.090605
 C        -3.413130         1.791079        -0.052522
 C        -2.563286         1.991477         1.208045
 C        -1.574020         3.090889         1.390705
 C        -0.719677         3.473271         0.187867
 O        -1.454641         3.184207        -1.019655
 C        -2.012669         1.923448        -1.003749
 H        -0.570708        -0.375280        -0.033551
 H        -3.205002        -0.116647        -1.159184
 H        -3.613354        -0.323962         0.729564
 H        -4.256248         2.435292        -0.259093
 H        -2.776364         1.526087         2.208787
 H        -2.043120         3.966944         1.821381
 H        -0.922189         2.738694         2.194443
 H        -0.459759         4.604670         0.095992
 H         0.348699         3.146456         0.278683
 H        -2.061491         1.425042        -1.944261
