19
Iteration:  2456charge 0 multiplicity 1
 O        -0.509672         0.334522         0.434051
 C        -1.825402         0.906700         0.275177
 C        -3.188213         0.287699        -0.129704
 C        -3.459598         1.772944        -0.067418
 C        -2.491526         1.879531         1.172059
 C        -1.660533         3.149876         1.486204
 C        -0.735274         3.443871         0.285373
 O        -1.356520         3.186913        -1.023957
 C        -2.115770         1.961783        -0.944753
 H        -0.726841        -0.616821         0.604147
 H        -3.359198        -0.403350        -0.949453
 H        -3.743499        -0.115432         0.664770
 H        -4.365876         2.242797         0.062509
 H        -2.996306         1.541864         2.122646
 H        -2.447428         3.838297         1.703908
 H        -1.101108         2.986306         2.336892
 H        -0.484466         4.539532         0.281593
 H         0.212544         2.921195         0.381511
 H        -2.005587         1.632799        -1.994042
