19
Iteration:  3784charge 0 multiplicity 1
 O        -0.598281         0.212284         0.469224
 C        -1.807200         0.935186         0.210877
 C        -3.170945         0.276250        -0.197779
 C        -3.363670         1.814526        -0.046606
 C        -2.472995         1.855723         1.187834
 C        -1.802779         3.258836         1.458325
 C        -0.724745         3.446110         0.326694
 O        -1.351738         3.127521        -0.983835
 C        -2.089144         1.905438        -0.859702
 H         0.120781         0.813304         0.084274
 H        -3.197122        -0.238104        -1.193473
 H        -3.677801        -0.188148         0.612533
 H        -4.223353         2.445979        -0.220921
 H        -3.015689         1.391060         2.046900
 H        -2.655171         4.111316         1.449090
 H        -1.311209         3.290090         2.480935
 H        -0.186422         4.433576         0.213168
 H         0.180781         2.664469         0.402710
 H        -2.256221         1.658286        -1.888151
