19
Iteration:   469charge 0 multiplicity 1
 O        -0.604639         0.271427         0.674275
 C        -1.800259         0.898401         0.203011
 C        -3.168306         0.275949        -0.013240
 C        -3.451767         1.841758        -0.103406
 C        -2.462081         1.922479         1.173151
 C        -1.641422         3.184267         1.454444
 C        -0.716425         3.427500         0.173081
 O        -1.369685         3.159115        -1.071365
 C        -2.160301         1.957768        -0.997230
 H        -0.532109        -0.628620         0.407936
 H        -3.360655        -0.272316        -0.960903
 H        -3.499849        -0.245953         0.862973
 H        -4.380336         2.311018        -0.106659
 H        -2.970834         1.499665         2.058624
 H        -2.359214         3.964228         1.742801
 H        -0.991093         3.028813         2.314316
 H        -0.240255         4.524979        -0.047750
 H         0.337652         2.897257         0.227044
 H        -2.207354         1.671166        -2.114685
