19
Iteration:   564charge 0 multiplicity 1
 O        -0.650932         0.198999         0.456115
 C        -1.812472         0.917207         0.205946
 C        -3.304051         0.342039         0.130991
 C        -3.383009         1.879937        -0.021022
 C        -2.377167         1.928328         1.143478
 C        -1.787754         3.200338         1.456599
 C        -0.901683         3.619474         0.189904
 O        -1.077949         2.920794        -1.051126
 C        -2.074660         1.877820        -0.951053
 H        -0.111419         0.086057        -0.366619
 H        -3.663881        -0.299516        -0.682649
 H        -3.584660         0.019068         1.171347
 H        -4.316456         2.476287        -0.201284
 H        -2.921720         1.675404         2.087167
 H        -2.555210         4.048336         1.623857
 H        -1.136044         3.114267         2.352828
 H        -0.961462         4.641793        -0.097014
 H         0.125458         3.420737         0.455930
 H        -2.111982         1.437756        -1.976330
