19
Iteration:  2971
 O        -0.630423         0.106281         0.363010
 C        -1.793711         0.872930         0.233301
 C        -3.149767         0.244198        -0.073180
 C        -3.369352         1.839770        -0.101202
 C        -2.494044         1.921828         1.206067
 C        -1.616992         3.136098         1.480688
 C        -0.854489         3.612319         0.271074
 O        -1.388701         3.207215        -0.995377
 C        -2.062565         1.918478        -0.918205
 H        -0.287243         0.316971         1.311627
 H        -3.215639        -0.185853        -1.044877
 H        -3.499826        -0.416023         0.753569
 H        -4.054441         2.628093        -0.282952
 H        -3.127800         1.631649         2.120680
 H        -2.246189         3.895022         1.861676
 H        -1.103918         2.783122         2.410507
 H        -0.739742         4.687240         0.088189
 H         0.165090         3.315958         0.334625
 H        -2.093889         1.505128        -1.921993
