19
Iteration:   105charge 0 multiplicity 1
 O        -0.713473         0.112280         0.710522
 C        -1.838337         0.805158         0.286467
 C        -3.273734         0.299883         0.003889
 C        -3.308107         1.836934        -0.029721
 C        -2.381415         1.899336         1.155021
 C        -1.490238         3.171924         1.399044
 C        -0.991224         3.858845         0.096685
 O        -1.246555         3.030634        -1.081096
 C        -2.041685         1.914438        -1.015515
 H        -0.810495        -0.745652         0.289142
 H        -3.459586        -0.089962        -0.963435
 H        -3.876931        -0.187305         0.843498
 H        -4.270670         2.497291        -0.107246
 H        -2.783374         1.418807         2.042633
 H        -1.997391         3.946560         2.016332
 H        -0.600063         2.869364         1.983663
 H        -1.442189         4.805759        -0.125155
 H         0.090015         3.996925         0.018268
 H        -2.183776         1.486684        -2.107117
