19
Iteration:  3324
 O        -0.593532         0.175220         0.535454
 C        -1.764100         0.850092         0.234476
 C        -3.230111         0.352891        -0.150254
 C        -3.374635         1.825048         0.044470
 C        -2.429871         1.765340         1.216088
 C        -1.724929         3.156800         1.388360
 C        -0.868955         3.581892         0.262779
 O        -1.326455         3.179719        -0.979998
 C        -2.053169         1.941907        -0.981984
 H         0.071982         0.264052        -0.244447
 H        -3.370950        -0.086595        -1.123483
 H        -3.867359        -0.114930         0.556833
 H        -4.136382         2.588649        -0.272757
 H        -2.867920         1.272700         2.082222
 H        -2.422333         3.978165         1.615861
 H        -1.047881         2.912002         2.288656
 H        -0.736573         4.648636         0.250258
 H         0.187075         3.195240         0.544296
 H        -2.337491         1.699338        -2.039573
