19
Iteration:  2557charge 0 multiplicity 1
 O        -0.607639         0.147686         0.332692
 C        -1.731976         0.842527         0.120379
 C        -3.265646         0.288952        -0.084337
 C        -3.272913         1.885615        -0.123902
 C        -2.410816         1.881948         1.171253
 C        -1.709398         3.255551         1.555509
 C        -0.883225         3.680671         0.319492
 O        -1.346876         3.063470        -0.950618
 C        -2.051313         1.897877        -0.919940
 H        -0.618310        -0.051481         1.317342
 H        -3.433846        -0.390431        -0.925066
 H        -3.741783        -0.078854         0.828509
 H        -4.264807         2.462724        -0.097815
 H        -2.834423         1.278145         2.058265
 H        -2.623336         3.782484         1.855671
 H        -1.062809         3.111863         2.354068
 H        -0.715154         4.675448         0.001597
 H         0.098435         3.333933         0.683718
 H        -2.219424         1.427454        -1.958452
