19
Iteration:  3322charge 0 multiplicity 1
 O        -0.596028         0.167909         0.543334
 C        -1.777183         0.848817         0.224589
 C        -3.205078         0.364869        -0.168558
 C        -3.367250         1.823788         0.050105
 C        -2.431126         1.783898         1.221449
 C        -1.728192         3.144476         1.393093
 C        -0.863141         3.581382         0.238951
 O        -1.331896         3.166950        -0.971295
 C        -2.050567         1.951504        -0.973621
 H         0.021918         0.305629        -0.204376
 H        -3.389405        -0.093361        -1.159909
 H        -3.886000        -0.172284         0.585369
 H        -4.185469         2.597656        -0.259105
 H        -2.847502         1.222961         2.049257
 H        -2.375818         3.980327         1.659743
 H        -1.064507         2.950045         2.270400
 H        -0.773740         4.666472         0.293025
 H         0.153951         3.234401         0.464608
 H        -2.332112         1.689057        -1.971612
