19
Iteration:  3725
 O        -0.587165         0.189406         0.455689
 C        -1.795528         0.870972         0.170776
 C        -3.185048         0.331476        -0.075527
 C        -3.393557         1.857763        -0.074299
 C        -2.464665         1.885580         1.162677
 C        -1.802539         3.227565         1.510293
 C        -0.833658         3.464969         0.330967
 O        -1.289001         3.147372        -0.964053
 C        -1.997055         1.903627        -0.963307
 H        -0.041877         0.480049        -0.340776
 H        -3.371679        -0.254596        -0.941521
 H        -3.640792        -0.211109         0.814049
 H        -4.342584         2.318288        -0.432166
 H        -2.828479         1.328058         2.029069
 H        -2.659925         3.964169         1.606277
 H        -1.289086         3.235783         2.459158
 H        -0.685066         4.511795         0.505980
 H         0.139183         2.949029         0.414075
 H        -2.189972         1.514003        -2.010999
