19
Iteration:  2415
 O        -0.557658         0.155630         0.442681
 C        -1.767547         0.859324         0.252216
 C        -3.237597         0.306915        -0.117587
 C        -3.343632         1.832857        -0.114893
 C        -2.417606         1.879893         1.169388
 C        -1.707616         3.155930         1.530030
 C        -0.820738         3.613984         0.264209
 O        -1.405460         3.176509        -1.022945
 C        -2.053605         1.977589        -0.939437
 H        -0.551862        -0.648391         1.064151
 H        -3.366891        -0.240237        -1.047193
 H        -3.764333        -0.252356         0.702554
 H        -4.402480         2.317760        -0.059804
 H        -2.874272         1.379073         2.053928
 H        -2.293064         4.094391         1.807498
 H        -1.068114         2.870702         2.384477
 H        -0.762786         4.676817         0.198213
 H         0.250901         3.230719         0.298189
 H        -2.171277         1.473228        -1.947184
