19
Iteration:  1278charge 0 multiplicity 1
 O        -0.471699         0.122761         0.452218
 C        -1.723635         0.883369         0.204019
 C        -3.320463         0.385085         0.001490
 C        -3.333757         1.872773        -0.078989
 C        -2.391670         1.864750         1.190402
 C        -1.823596         3.284684         1.431199
 C        -0.779781         3.472664         0.278890
 O        -1.354516         3.164022        -1.024582
 C        -2.098012         1.924475        -0.963597
 H        -0.795448        -0.834284         0.457612
 H        -3.541763        -0.168533        -0.935113
 H        -3.780483        -0.063391         0.930394
 H        -4.242687         2.463526        -0.023733
 H        -2.786550         1.474773         2.175832
 H        -2.784674         3.886373         1.506294
 H        -1.410231         3.444422         2.436687
 H        -0.266688         4.482339         0.187028
 H        -0.000465         2.731462         0.415198
 H        -2.107720         1.474447        -2.052979
