19
Iteration:  2392
 O        -0.632334         0.038974         0.332646
 C        -1.771351         0.864127         0.176876
 C        -3.162721         0.242594        -0.036287
 C        -3.336355         1.840448        -0.107714
 C        -2.410774         1.927152         1.188414
 C        -1.721193         3.202471         1.438082
 C        -0.891712         3.619908         0.298130
 O        -1.383236         3.248899        -0.926790
 C        -1.974295         1.916387        -0.922443
 H        -0.607884        -0.315026         1.188843
 H        -3.473937        -0.479892        -0.815281
 H        -3.499556        -0.145850         0.918901
 H        -4.213077         2.521122        -0.264674
 H        -2.948190         1.627580         2.119193
 H        -2.589825         3.951338         1.564685
 H        -1.078812         3.328636         2.280120
 H        -0.717195         4.675655         0.196657
 H         0.133419         3.165076         0.525952
 H        -2.129120         1.435460        -1.933584
