19
Iteration:  3863charge 0 multiplicity 1
 O        -0.653210        -0.058977         0.388311
 C        -1.797613         0.793163         0.224971
 C        -3.154338         0.303989        -0.054953
 C        -3.321555         1.953130        -0.110034
 C        -2.504276         1.878116         1.224620
 C        -1.754622         3.191493         1.538708
 C        -0.901239         3.797892         0.292911
 O        -1.327855         3.132312        -1.062764
 C        -1.936494         1.888730        -0.906969
 H         0.075209         0.331790         0.955264
 H        -3.357206        -0.153181        -1.024681
 H        -3.727898        -0.256104         0.730327
 H        -4.242088         2.436258        -0.560512
 H        -2.973157         1.377357         2.058122
 H        -2.433925         3.950168         2.001674
 H        -0.948714         3.091843         2.351314
 H        -1.015740         4.863236         0.190016
 H         0.195339         3.626690         0.226637
 H        -2.031406         1.596609        -1.948310
