19
Iteration:   919charge 0 multiplicity 1
 O        -0.567658         0.148440         0.430537
 C        -1.828712         0.911711         0.326436
 C        -3.182227         0.253699        -0.039694
 C        -3.408137         1.793390        -0.042713
 C        -2.464438         1.947951         1.240455
 C        -1.772133         3.338561         1.351472
 C        -0.691701         3.443989         0.278293
 O        -1.325008         3.126890        -1.010312
 C        -2.113822         1.962102        -0.898958
 H        -0.515641        -0.198438        -0.478144
 H        -3.028321        -0.115064        -1.042615
 H        -3.924578        -0.206459         0.632851
 H        -4.408799         2.271632        -0.265189
 H        -2.931586         1.483791         2.171745
 H        -2.397546         4.244130         1.471902
 H        -1.228371         3.230540         2.197363
 H        -0.258136         4.423844         0.219506
 H         0.165977         2.872248         0.398728
 H        -2.251022         1.500400        -1.901082
