19
Iteration:  1564
 O        -0.627530         0.226005         0.480695
 C        -1.838249         0.942588         0.191062
 C        -3.203146         0.234650         0.018164
 C        -3.411968         1.803239        -0.128455
 C        -2.426248         1.846852         1.186231
 C        -1.632236         3.086020         1.496475
 C        -0.762501         3.557505         0.229510
 O        -1.261431         3.200960        -1.036064
 C        -2.155529         1.982053        -1.038087
 H        -0.654053         0.021697         1.479386
 H        -3.312008        -0.338987        -0.903526
 H        -3.711534        -0.292721         0.816649
 H        -4.317159         2.492310        -0.106130
 H        -2.942597         1.472815         2.109414
 H        -2.361101         3.963342         1.801911
 H        -1.222199         2.812753         2.367181
 H        -0.776453         4.624135         0.207656
 H         0.308867         3.257139         0.396489
 H        -2.221467         1.452477        -2.048541
