19
Iteration:  4627charge 0 multiplicity 1
 O        -0.574900         0.136791         0.247367
 C        -1.728277         0.916306         0.152703
 C        -3.115308         0.286747        -0.213902
 C        -3.288685         1.822720        -0.230574
 C        -2.589014         1.893370         1.134881
 C        -1.930717         3.180186         1.561917
 C        -0.786195         3.470626         0.592018
 O        -1.359059         3.213080        -0.826207
 C        -2.014272         1.953280        -0.917956
 H         0.168598         0.672151         0.440446
 H        -3.108938        -0.387725        -1.062728
 H        -3.504460        -0.079498         0.721088
 H        -4.248901         2.242287        -0.450981
 H        -3.091565         1.263842         1.915449
 H        -2.591620         4.074816         1.541803
 H        -1.597458         3.031347         2.606237
 H        -0.429669         4.538648         0.545140
 H         0.031453         2.798847         0.731473
 H        -1.853681         1.695946        -1.974693
