19
Iteration:  4134charge 0 multiplicity 1
 O        -0.592464         0.056830         0.286980
 C        -1.750465         0.924893         0.223600
 C        -3.179823         0.268079        -0.081925
 C        -3.358064         1.819907        -0.197368
 C        -2.482233         1.971405         1.208012
 C        -1.807098         3.313629         1.540096
 C        -0.784763         3.480482         0.381659
 O        -1.373920         3.134692        -0.872084
 C        -2.075676         1.915920        -0.994682
 H         0.003882         0.361668         0.919222
 H        -2.969079        -0.333215        -0.977742
 H        -3.507236        -0.240475         0.864837
 H        -4.280697         2.361610        -0.504536
 H        -3.015287         1.370142         2.000853
 H        -2.433392         4.193773         1.529737
 H        -1.249716         3.334185         2.465691
 H        -0.623219         4.587386         0.300806
 H         0.182383         3.081525         0.540894
 H        -1.990140         1.608982        -2.030723
