19
Iteration:  4282charge 0 multiplicity 1
 O        -0.510176         0.116698         0.400940
 C        -1.716269         0.977820         0.185709
 C        -3.264977         0.327503        -0.181858
 C        -3.368624         1.815168        -0.062139
 C        -2.452784         1.794265         1.194095
 C        -1.857001         3.112236         1.444234
 C        -0.830441         3.510242         0.306193
 O        -1.257345         3.182706        -0.957299
 C        -2.104093         2.025619        -0.894431
 H        -0.115043         0.284162         1.360937
 H        -3.177258        -0.081898        -1.204132
 H        -3.719393        -0.245131         0.608355
 H        -4.346293         2.319736        -0.089478
 H        -2.951557         1.448462         2.178394
 H        -2.507731         3.989868         1.452339
 H        -1.539559         3.321469         2.509810
 H        -0.663879         4.613385         0.300453
 H         0.069613         2.846739         0.525389
 H        -2.228307         1.682856        -1.945600
