19
Iteration:  4088charge 0 multiplicity 1
 O        -0.590130         0.094127         0.423283
 C        -1.756569         0.879256         0.172857
 C        -3.087506         0.291052        -0.212061
 C        -3.422628         1.922497        -0.067375
 C        -2.397521         1.832865         1.256002
 C        -1.739066         3.160240         1.488385
 C        -0.898758         3.533969         0.340552
 O        -1.327106         3.142803        -1.027349
 C        -2.083360         2.002384        -0.903625
 H        -0.475127         0.143917         1.415128
 H        -3.253758        -0.011515        -1.313442
 H        -3.734948        -0.142871         0.552163
 H        -4.315971         2.580191        -0.071987
 H        -2.717770         1.356570         2.196445
 H        -2.619491         3.815337         1.350448
 H        -1.400265         3.397907         2.521349
 H        -0.637032         4.627990         0.409932
 H         0.013053         3.076842         0.414949
 H        -2.149484         1.619011        -2.009487
