19
Iteration:  1794
 O        -0.691112         0.011580         0.427692
 C        -1.810133         0.850106         0.214472
 C        -3.158654         0.303586         0.005116
 C        -3.376429         1.796249         0.002963
 C        -2.385608         1.909029         1.220004
 C        -1.783630         3.245679         1.403846
 C        -0.806303         3.648226         0.268323
 O        -1.286734         3.145341        -1.048122
 C        -2.052788         1.958935        -0.923904
 H         0.164623         0.549615         0.243000
 H        -3.562961        -0.164821        -0.861762
 H        -3.585990        -0.188725         0.824079
 H        -4.337723         2.304452        -0.407714
 H        -2.773396         1.508281         2.151959
 H        -2.639225         3.963276         1.612917
 H        -1.121305         3.220798         2.251701
 H        -0.580177         4.710474         0.227739
 H         0.144392         3.080837         0.373031
 H        -2.178297         1.682166        -2.072958
