19
Iteration:  1802charge 0 multiplicity 1
 O        -0.697744        -0.059921         0.363837
 C        -1.768116         0.760984         0.231083
 C        -3.157058         0.274411         0.045524
 C        -3.340466         1.920701        -0.011834
 C        -2.468460         1.907344         1.218594
 C        -1.772771         3.308611         1.400507
 C        -0.813945         3.668152         0.259841
 O        -1.290072         3.193395        -1.022320
 C        -2.036949         1.912514        -0.962200
 H         0.100971         0.584997         0.488100
 H        -3.327398        -0.382469        -0.878676
 H        -3.583168        -0.222591         0.975215
 H        -4.409787         2.297518        -0.089816
 H        -2.831874         1.354075         2.094265
 H        -2.625811         3.891527         1.523610
 H        -1.177031         3.385910         2.402241
 H        -0.665637         4.794453         0.008127
 H         0.164470         3.193999         0.523298
 H        -2.144560         1.653685        -1.989447
