19
Iteration:  4242
 O        -0.589389         0.103867         0.304900
 C        -1.756460         0.968973         0.259525
 C        -3.119727         0.282132        -0.070895
 C        -3.397284         1.795104        -0.220905
 C        -2.492724         1.955584         1.167742
 C        -1.742752         3.225521         1.486730
 C        -0.782997         3.518426         0.364745
 O        -1.431333         3.193982        -0.851869
 C        -2.001110         1.913454        -0.965537
 H        -0.676278        -0.397852         1.081520
 H        -3.117296        -0.330556        -0.972746
 H        -3.590241        -0.320406         0.729784
 H        -4.224646         2.413610        -0.594983
 H        -2.993869         1.429904         1.940844
 H        -2.616610         3.918462         1.602066
 H        -1.198026         3.208145         2.450602
 H        -0.655033         4.612411         0.373160
 H         0.175040         2.927948         0.625336
 H        -1.851652         1.594688        -2.040902
