19
Iteration:  3187
 O        -0.569153         0.179963         0.331544
 C        -1.762452         0.889766         0.141947
 C        -3.245046         0.254746        -0.015405
 C        -3.405198         1.882505        -0.021743
 C        -2.416638         1.910942         1.188275
 C        -1.818062         3.266205         1.437242
 C        -0.740045         3.422452         0.344179
 O        -1.398375         3.166447        -0.930595
 C        -2.052555         1.886579        -0.941501
 H         0.072665         0.763703         0.660270
 H        -3.403557        -0.306333        -0.998202
 H        -3.599079        -0.335054         0.882527
 H        -4.219659         2.428299        -0.362357
 H        -2.738087         1.428702         2.094884
 H        -2.379286         4.201357         1.545038
 H        -1.288714         3.024747         2.311759
 H        -0.378153         4.468112         0.145390
 H         0.180383         2.789434         0.386315
 H        -2.088501         1.562275        -1.973938
