19
Iteration:  4511
 O        -0.573326         0.162011         0.368862
 C        -1.741927         0.918411         0.192792
 C        -3.179237         0.284406        -0.241991
 C        -3.349749         1.780862        -0.155256
 C        -2.513616         1.787686         1.160564
 C        -1.831017         3.151093         1.603098
 C        -0.842252         3.559406         0.375700
 O        -1.314472         3.275452        -0.903237
 C        -1.995828         2.014908        -0.951112
 H        -0.661012        -0.289705         1.182273
 H        -3.040388         0.008820        -1.302276
 H        -3.526148        -0.450934         0.501454
 H        -4.306844         2.184777        -0.428608
 H        -2.931308         1.286755         2.047659
 H        -2.561850         3.926659         1.833407
 H        -1.289901         2.941332         2.540936
 H        -0.630755         4.634440         0.393281
 H         0.046723         2.952354         0.613371
 H        -2.043695         1.581126        -1.938562
