19
Iteration:   750
 O        -0.553034         0.130855         0.311761
 C        -1.822294         0.920150         0.245381
 C        -3.264020         0.297635         0.000345
 C        -3.409542         1.897873        -0.030484
 C        -2.557677         2.036450         1.269187
 C        -1.775042         3.328168         1.398367
 C        -0.774431         3.515045         0.212853
 O        -1.243130         2.956609        -0.957444
 C        -2.020081         1.823861        -0.873912
 H        -0.059856         0.820351        -0.209694
 H        -3.324854        -0.458544        -0.806950
 H        -3.699643        -0.190090         0.868664
 H        -4.318165         2.438170        -0.239516
 H        -2.947702         1.610371         2.206922
 H        -2.412138         4.117346         1.626900
 H        -1.054907         3.223859         2.194468
 H        -0.574516         4.547056        -0.020041
 H         0.147191         2.953825         0.577739
 H        -2.135813         1.427068        -1.824051
