19
Iteration:  4999charge 0 multiplicity 1
 O        -0.563239         0.123976         0.350971
 C        -1.747907         0.960746         0.042893
 C        -3.052154         0.367189        -0.390795
 C        -3.283278         1.810473        -0.170947
 C        -2.498371         1.679059         1.163728
 C        -2.016643         3.080066         1.596315
 C        -0.931118         3.503672         0.612208
 O        -1.245652         3.268872        -0.823964
 C        -2.001446         2.090484        -0.969184
 H        -0.325512         0.339278         1.308325
 H        -3.182745         0.028562        -1.458962
 H        -3.476519        -0.337038         0.371433
 H        -4.166150         2.389039        -0.276788
 H        -3.036143         1.228862         1.999140
 H        -2.949771         3.681644         1.734820
 H        -1.528281         3.067718         2.614813
 H        -0.634441         4.557384         0.698534
 H        -0.044658         2.916698         0.717185
 H        -1.932471         1.672236        -2.053326
