19
Iteration:  4011
 O        -0.519524         0.242001         0.493590
 C        -1.765688         0.920915         0.183284
 C        -3.127373         0.313255        -0.181016
 C        -3.471281         1.819795        -0.112942
 C        -2.479577         1.869217         1.217910
 C        -1.747713         3.246508         1.576615
 C        -0.782748         3.423194         0.338603
 O        -1.356702         3.198176        -1.039007
 C        -2.090595         1.940857        -0.919242
 H        -0.574239        -0.668494         0.374752
 H        -3.302520        -0.039190        -1.272133
 H        -3.509596        -0.339953         0.614407
 H        -4.462296         2.212303        -0.339628
 H        -3.035995         1.451046         2.094015
 H        -2.556478         3.937847         1.741058
 H        -1.135566         3.063350         2.431287
 H        -0.340595         4.437413         0.130476
 H         0.042220         2.666586         0.425498
 H        -2.118566         1.571099        -2.004523
