19
Iteration:  4827
 O        -0.570611         0.167641         0.203347
 C        -1.794164         0.844661         0.171136
 C        -3.102276         0.287855        -0.340404
 C        -3.308563         1.823804        -0.262826
 C        -2.575801         1.817719         1.108536
 C        -1.913154         3.138086         1.577008
 C        -0.853255         3.524391         0.620439
 O        -1.353621         3.249873        -0.730388
 C        -1.928543         1.951974        -0.875254
 H        -0.091499         0.501090         1.005869
 H        -3.165560        -0.303199        -1.265240
 H        -3.517940        -0.235044         0.532734
 H        -4.071368         2.560139        -0.531594
 H        -3.092027         1.239332         1.940071
 H        -2.649638         3.963085         1.598363
 H        -1.443000         3.190273         2.572157
 H        -0.647670         4.620543         0.613680
 H         0.212775         3.130581         0.591820
 H        -1.637244         1.715784        -1.908179
