19
Iteration:  2620charge 0 multiplicity 1
 O        -0.535965         0.133807         0.452144
 C        -1.774134         0.968330         0.172387
 C        -3.239426         0.295595        -0.163691
 C        -3.380882         1.813746        -0.067476
 C        -2.402392         1.901133         1.131282
 C        -1.687080         3.165769         1.502715
 C        -0.794882         3.538557         0.369898
 O        -1.418136         3.140639        -1.007232
 C        -2.066493         1.925269        -0.932280
 H        -0.662728         0.130639         1.399498
 H        -3.397620        -0.106254        -1.254105
 H        -3.787832        -0.303280         0.596257
 H        -4.329023         2.336481        -0.077323
 H        -2.780406         1.451123         2.039746
 H        -2.370648         4.023889         1.655214
 H        -1.009118         3.136619         2.466590
 H        -0.733443         4.661179         0.375079
 H         0.165977         3.075556         0.222915
 H        -2.278843         1.627146        -1.998196
