19
Iteration:  2739charge 0 multiplicity 1
 O        -0.571448         0.156133         0.438690
 C        -1.741910         0.797496         0.172889
 C        -3.135471         0.295969        -0.124713
 C        -3.365101         1.888535        -0.006711
 C        -2.465689         1.906152         1.187471
 C        -1.774178         3.240935         1.548512
 C        -0.800500         3.595457         0.270783
 O        -1.373401         3.130974        -1.003556
 C        -2.085859         1.936307        -0.945948
 H        -0.640364        -0.833014         0.467217
 H        -3.324186         0.020002        -1.205240
 H        -3.634551        -0.305432         0.614189
 H        -4.398309         2.249131        -0.168095
 H        -3.020714         1.363748         1.986277
 H        -2.501668         4.017066         1.633404
 H        -1.175231         3.109224         2.506345
 H        -0.382997         4.692621         0.207044
 H         0.181988         3.056743         0.483571
 H        -2.155453         1.837012        -2.009673
