19
Iteration:  2825
 O        -0.591849         0.300724         0.479900
 C        -1.755061         0.882128         0.168747
 C        -3.123970         0.246896        -0.180668
 C        -3.422935         1.933438        -0.018071
 C        -2.483106         1.832186         1.247962
 C        -1.782569         3.163893         1.414774
 C        -0.746354         3.443386         0.324984
 O        -1.333289         3.132592        -0.991585
 C        -2.112110         1.958139        -0.896633
 H        -0.504957        -0.420936        -0.086953
 H        -3.336170        -0.321323        -1.105719
 H        -3.352223        -0.289414         0.691325
 H        -4.381023         2.500107        -0.169293
 H        -2.829422         1.356205         2.280618
 H        -2.337128         4.122107         1.434031
 H        -1.215404         3.278946         2.364707
 H        -0.624894         4.609619         0.402517
 H         0.203335         2.917002         0.240900
 H        -2.302519         1.526525        -1.890478
