19
Iteration:  1639
 O        -0.649340         0.019583         0.346974
 C        -1.709908         0.905955         0.096786
 C        -3.219331         0.254156         0.047431
 C        -3.330697         1.826195        -0.011632
 C        -2.484284         1.962221         1.172659
 C        -1.767722         3.295599         1.463447
 C        -0.854939         3.734105         0.342720
 O        -1.240250         3.085309        -0.985955
 C        -1.999999         1.890866        -1.002389
 H        -0.977255        -0.716176         0.808234
 H        -3.436165        -0.434842        -0.749120
 H        -3.644876        -0.112512         0.972338
 H        -4.291817         2.335985        -0.213501
 H        -2.676806         1.432599         2.100803
 H        -2.512701         4.152416         1.739357
 H        -1.136108         3.096417         2.395115
 H        -1.121616         4.775920         0.022403
 H         0.181172         3.534383         0.604080
 H        -2.334222         1.553786        -2.068519
