19
Iteration:  2947
 O        -0.596275         0.013783         0.447690
 C        -1.753879         0.826785         0.229468
 C        -3.263167         0.380229        -0.096543
 C        -3.352424         1.846663        -0.098248
 C        -2.343872         1.814883         1.183689
 C        -1.696661         3.160655         1.480249
 C        -0.909951         3.590021         0.227155
 O        -1.425067         3.280536        -1.017965
 C        -1.964527         1.939636        -0.912667
 H        -0.213901         0.227155         1.308861
 H        -3.175740        -0.214418        -0.984973
 H        -3.825962        -0.006229         0.731496
 H        -4.302065         2.480877        -0.156133
 H        -2.867999         1.256488         2.097146
 H        -2.499633         3.897384         1.819465
 H        -1.063103         3.016633         2.434272
 H        -0.783962         4.699442        -0.023017
 H         0.118563         3.300443         0.352190
 H        -2.227117         1.650013        -1.915762
