19
Iteration:    22
 O        -0.708382        -0.056496         0.448287
 C        -1.860399         0.762876         0.257255
 C        -3.355902         0.386419         0.017530
 C        -3.274372         2.006578         0.012899
 C        -2.277339         1.974892         1.174333
 C        -1.453882         3.296303         1.346979
 C        -1.413814         4.046163         0.018278
 O        -0.920993         2.718175        -0.896910
 C        -2.059361         1.787487        -0.912694
 H        -0.415205         0.342353         1.343808
 H        -3.553193        -0.122855        -0.938852
 H        -3.914954        -0.103570         0.856160
 H        -4.100210         2.614027        -0.090086
 H        -2.696356         1.664435         2.198587
 H        -1.798428         3.807038         2.257813
 H        -0.395110         2.996762         1.535566
 H        -2.358222         4.554241        -0.355819
 H        -0.627859         4.794625        -0.052349
 H        -2.310649         1.439631        -1.848291
