19
Iteration:  4504
 O        -0.505503         0.176526         0.411050
 C        -1.729702         0.916744         0.174391
 C        -3.146801         0.325841        -0.290545
 C        -3.353290         1.824623        -0.078062
 C        -2.496626         1.733771         1.204988
 C        -1.839239         3.180468         1.524103
 C        -0.879149         3.518095         0.439462
 O        -1.305654         3.238380        -0.932890
 C        -2.056605         2.015211        -0.983650
 H        -1.118801        -0.428969         0.996550
 H        -3.124825        -0.085230        -1.315346
 H        -3.598807        -0.405690         0.406336
 H        -4.311106         2.377237        -0.316313
 H        -2.865417         1.329887         2.233433
 H        -2.666104         3.891705         1.692496
 H        -1.342333         2.933745         2.495147
 H        -0.565943         4.565055         0.407900
 H         0.041169         2.980271         0.651100
 H        -2.040127         1.761401        -2.089481
