19
Iteration:  4347
 O        -0.611791         0.120595         0.409666
 C        -1.728817         0.856641         0.168908
 C        -3.132249         0.241975        -0.047692
 C        -3.340143         1.874549        -0.212333
 C        -2.535456         1.955042         1.172409
 C        -1.784865         3.115265         1.496750
 C        -0.837831         3.473358         0.385097
 O        -1.425312         3.296911        -0.896223
 C        -1.950645         1.938970        -0.932639
 H         0.105109         0.264477        -0.168666
 H        -3.239348        -0.347319        -1.020330
 H        -3.574929        -0.355180         0.784686
 H        -4.095584         2.645277        -0.442374
 H        -3.164910         1.457098         2.045463
 H        -2.704059         3.762127         1.674546
 H        -1.255819         3.108515         2.495792
 H        -0.581954         4.553266         0.335296
 H         0.093021         2.886931         0.405404
 H        -1.868122         1.605430        -1.982477
