19
Iteration:    74
 O        -0.746828        -0.181685         0.543325
 C        -1.776464         0.796959         0.348754
 C        -3.255790         0.396183         0.079246
 C        -3.261817         1.925303        -0.064732
 C        -2.413085         2.001396         1.224800
 C        -1.533122         3.318504         1.420341
 C        -1.189538         3.909159         0.036042
 O        -1.166852         2.951894        -1.034499
 C        -1.921298         1.829937        -0.950268
 H        -0.509836        -0.325625        -0.405943
 H        -3.523596        -0.091736        -0.854164
 H        -3.856248        -0.077170         0.948817
 H        -4.043378         2.553117        -0.343439
 H        -2.924066         1.637222         2.188104
 H        -2.091344         4.089637         1.998282
 H        -0.613955         3.036068         2.022787
 H        -2.006840         4.690968        -0.149916
 H        -0.213354         4.328717         0.003626
 H        -1.973262         1.415102        -1.966348
