19
Iteration:   196
 O        -0.696982         0.057301         0.460995
 C        -1.776575         0.902193         0.252073
 C        -3.192571         0.330129         0.062888
 C        -3.316295         1.908738         0.005352
 C        -2.454948         2.008901         1.212364
 C        -1.747281         3.316739         1.420210
 C        -0.890282         3.474504         0.164817
 O        -1.250171         2.990849        -1.150112
 C        -2.041923         1.902070        -0.872728
 H         0.042762         0.627660         0.264290
 H        -3.400426        -0.160032        -0.942901
 H        -3.584647        -0.205882         0.978583
 H        -4.134341         2.462117        -0.210843
 H        -2.829833         1.462656         2.151381
 H        -2.551389         4.112410         1.527751
 H        -1.087934         3.381551         2.383290
 H        -0.706191         4.611667         0.047740
 H         0.056791         3.093306         0.433337
 H        -2.209995         1.440913        -1.845666
