19
Iteration:   156
 O        -0.628131         0.358482         0.627955
 C        -1.888447         0.777217         0.272003
 C        -3.370696         0.215740        -0.024363
 C        -3.447404         1.812248        -0.106968
 C        -2.467407         2.027690         1.175804
 C        -1.440776         3.147660         1.427378
 C        -0.835574         3.622887         0.169520
 O        -1.277629         3.054063        -1.050822
 C        -2.040840         1.800226        -0.918379
 H        -0.090595         0.007245        -0.153987
 H        -3.644541        -0.384882        -0.955267
 H        -3.844218        -0.096510         0.843951
 H        -4.339295         2.431231        -0.582872
 H        -3.051539         1.986790         2.116811
 H        -1.786480         3.959865         2.041631
 H        -0.685596         2.651935         2.012868
 H        -1.005176         4.725720         0.046544
 H         0.310575         3.627613         0.075404
 H        -2.076108         1.371578        -1.905617
