19
Iteration:  3546
 O        -0.622213         0.080259         0.225159
 C        -1.773221         0.905190         0.214857
 C        -3.107832         0.291583        -0.105127
 C        -3.386816         1.805950        -0.143590
 C        -2.493013         1.933339         1.173110
 C        -1.770920         3.281871         1.456742
 C        -0.843744         3.522179         0.373942
 O        -1.352304         3.183382        -0.855851
 C        -1.975602         1.942046        -0.852850
 H        -0.457705        -0.065476         1.222116
 H        -3.048087        -0.241805        -1.109007
 H        -3.617084        -0.165885         0.738204
 H        -4.360273         2.115862        -0.515802
 H        -2.994623         1.524657         2.049717
 H        -2.615747         4.023684         1.531462
 H        -1.191037         3.145493         2.428798
 H        -0.542951         4.606561         0.260640
 H         0.019773         2.909361         0.691207
 H        -1.982050         1.473225        -1.913804
