19
Iteration:   829
 O        -0.681379         0.034438         0.593351
 C        -1.763802         0.841174         0.255524
 C        -3.140160         0.305438        -0.080112
 C        -3.359549         1.889346        -0.123775
 C        -2.425214         1.941215         1.210804
 C        -1.621202         3.281900         1.499746
 C        -0.849976         3.522802         0.186670
 O        -1.428882         3.141057        -1.077792
 C        -2.072644         1.971921        -0.909998
 H        -0.323864        -0.222340        -0.314272
 H        -3.186480        -0.221006        -1.087838
 H        -3.675895        -0.073390         0.813486
 H        -4.241344         2.507971        -0.299597
 H        -2.973617         1.426274         2.096470
 H        -2.315784         4.045262         1.861366
 H        -0.890882         3.269129         2.260290
 H        -0.556341         4.643842         0.106211
 H         0.161542         3.132066         0.382188
 H        -2.045670         1.363400        -1.824119
