19
Iteration:  3794
 O        -0.595227         0.117806         0.514080
 C        -1.771545         0.809462         0.214135
 C        -3.129123         0.351306        -0.128318
 C        -3.401406         1.886136        -0.041102
 C        -2.425628         1.869202         1.190784
 C        -1.857553         3.185783         1.405293
 C        -0.794355         3.455254         0.264538
 O        -1.317433         3.190584        -0.980008
 C        -2.111601         1.995658        -0.912459
 H         0.127754         0.740350         0.131861
 H        -3.251392        -0.072254        -1.156568
 H        -3.637768        -0.278856         0.549643
 H        -4.318041         2.411751        -0.229750
 H        -2.596572         1.271223         2.121786
 H        -2.608221         4.111944         1.413779
 H        -1.344985         3.167129         2.409339
 H        -0.381349         4.505398         0.183426
 H         0.004962         2.805115         0.690625
 H        -2.097063         1.495010        -1.865847
