19
Iteration:  3445charge 0 multiplicity 1
 O        -0.635586         0.148765         0.363883
 C        -1.755633         0.831136         0.192986
 C        -3.164776         0.255220        -0.106821
 C        -3.397479         1.862621        -0.107579
 C        -2.564209         1.945193         1.159816
 C        -1.678366         3.131857         1.506910
 C        -0.851897         3.576933         0.323190
 O        -1.325137         3.205670        -0.963652
 C        -1.995079         1.916040        -0.897987
 H         0.024728         0.502125         0.928649
 H        -3.480446        -0.250158        -1.065346
 H        -3.507635        -0.327311         0.737912
 H        -4.218953         2.419182        -0.445167
 H        -2.996776         1.568607         2.089690
 H        -2.358618         3.898356         1.814359
 H        -1.012906         2.754959         2.369012
 H        -0.915771         4.649754         0.284996
 H         0.174383         3.284000         0.583410
 H        -2.046004         1.329158        -1.849933
