19
Iteration:  4415
 O        -0.503528         0.229516         0.313707
 C        -1.789734         0.868853         0.207688
 C        -3.181206         0.315914        -0.166170
 C        -3.449641         1.784640        -0.155333
 C        -2.449866         1.837923         1.149124
 C        -1.840548         3.156992         1.582727
 C        -0.862802         3.495550         0.404571
 O        -1.295794         3.211772        -0.930033
 C        -1.978973         1.992498        -0.935370
 H        -0.576018        -0.206400         1.280321
 H        -3.322499        -0.129906        -1.157718
 H        -3.691400        -0.251515         0.633467
 H        -4.295165         2.390071        -0.445961
 H        -3.019718         1.275648         2.014714
 H        -2.540613         4.012926         1.607343
 H        -1.287760         3.106095         2.586909
 H        -0.610288         4.577564         0.421931
 H         0.072646         2.901818         0.553993
 H        -1.897367         1.567690        -1.983870
