19
Iteration:  1372
 O        -0.581419         0.089878         0.452986
 C        -1.811451         0.835740         0.239446
 C        -3.235284         0.281346        -0.088813
 C        -3.284336         1.891377        -0.078578
 C        -2.394340         1.935569         1.221852
 C        -1.706630         3.234082         1.400146
 C        -0.801587         3.466389         0.212542
 O        -1.482054         3.271451        -1.015093
 C        -2.055706         1.868054        -0.902588
 H        -0.553364         0.064913         1.388391
 H        -3.262742        -0.176339        -1.088030
 H        -3.794772        -0.209022         0.702642
 H        -4.269248         2.477217        -0.183790
 H        -2.790197         1.471974         2.131869
 H        -2.282471         4.178600         1.606283
 H        -1.040493         3.247008         2.386688
 H        -0.266066         4.483321         0.156726
 H         0.113796         2.815483         0.422541
 H        -1.968802         1.442862        -1.881035
