19
Iteration:  2622charge 0 multiplicity 1
 O        -0.524141         0.135142         0.458502
 C        -1.765135         0.965488         0.170301
 C        -3.243309         0.315550        -0.160473
 C        -3.384429         1.801529        -0.080014
 C        -2.391177         1.880888         1.132797
 C        -1.699164         3.169734         1.492058
 C        -0.783938         3.547962         0.376712
 O        -1.428069         3.132609        -1.003550
 C        -2.074260         1.942110        -0.927763
 H        -0.647938         0.080917         1.374645
 H        -3.414078        -0.091092        -1.226401
 H        -3.791322        -0.257823         0.640030
 H        -4.389042         2.402371        -0.048442
 H        -2.872646         1.399142         2.066746
 H        -2.400150         4.042262         1.607920
 H        -1.042182         3.096206         2.405047
 H        -0.625838         4.618563         0.383531
 H         0.189577         3.081097         0.207647
 H        -2.266257         1.590620        -2.034585
