19
Iteration:   765charge 0 multiplicity 1
 O        -0.633288         0.063155         0.289139
 C        -1.761511         0.822581         0.306843
 C        -3.135620         0.338314         0.019491
 C        -3.395507         1.866676         0.013272
 C        -2.508911         2.026046         1.200862
 C        -1.810061         3.379910         1.424015
 C        -0.836110         3.569167         0.289918
 O        -1.171214         2.934802        -1.059277
 C        -2.134628         1.888826        -0.825641
 H         0.076593         0.199587        -0.417439
 H        -3.324095         0.036610        -1.054862
 H        -3.695266        -0.250448         0.795133
 H        -4.325740         2.416684        -0.176441
 H        -2.966616         1.673273         2.217307
 H        -2.565317         4.324551         1.476742
 H        -1.296858         3.405543         2.410108
 H        -0.612854         4.703707         0.011295
 H         0.147727         3.155981         0.526620
 H        -2.171073         1.382729        -1.905401
