19
Iteration:   934
 O        -0.668335         0.052811         0.386675
 C        -1.768873         0.853094         0.228632
 C        -3.214716         0.260352        -0.062307
 C        -3.391330         1.789944         0.017478
 C        -2.433283         1.998536         1.204245
 C        -1.758351         3.402402         1.394238
 C        -0.782097         3.570457         0.282404
 O        -1.289739         3.108574        -0.968125
 C        -2.047951         1.878788        -0.885897
 H        -0.156750        -0.245012        -0.450289
 H        -3.476368        -0.181722        -1.027991
 H        -3.497670        -0.361702         0.806271
 H        -4.322931         2.417657        -0.011949
 H        -2.772224         1.701048         2.174860
 H        -2.665935         4.035428         1.217193
 H        -1.326202         3.628832         2.471804
 H        -0.415679         4.590315         0.095287
 H         0.141963         2.939641         0.576601
 H        -2.017380         1.573349        -1.985208
