19
Iteration:    82
 O        -0.714528        -0.146114         0.587091
 C        -1.823460         0.795508         0.283108
 C        -3.292417         0.365368         0.029518
 C        -3.305563         1.910420        -0.103878
 C        -2.367191         2.014697         1.248185
 C        -1.502681         3.261743         1.346920
 C        -1.131475         3.941537         0.081348
 O        -1.200983         3.002743        -1.015030
 C        -1.970691         1.803131        -0.867905
 H        -0.471786        -0.598670        -0.248476
 H        -3.464451        -0.216662        -0.865341
 H        -3.639758        -0.091463         0.961710
 H        -4.252738         2.599163        -0.459441
 H        -2.783925         1.679971         2.146486
 H        -2.088577         4.058467         1.829761
 H        -0.645919         3.157587         1.983505
 H        -1.772174         4.729955        -0.173131
 H        -0.080799         4.312546         0.112937
 H        -2.021857         1.266921        -1.933765
