19
Iteration:   554charge 0 multiplicity 1
 O        -0.661153         0.155721         0.517594
 C        -1.793952         0.896253         0.196927
 C        -3.265754         0.351110         0.124793
 C        -3.380162         1.837157        -0.061666
 C        -2.465084         1.954795         1.199923
 C        -1.717933         3.247832         1.399293
 C        -0.891766         3.621021         0.249419
 O        -1.144960         2.974464        -1.121277
 C        -2.031106         1.882188        -0.975268
 H        -0.150669        -0.008093        -0.343081
 H        -3.559879        -0.352721        -0.667330
 H        -3.783955         0.083114         1.050794
 H        -4.286013         2.435545        -0.152770
 H        -2.754906         1.378485         2.124222
 H        -2.432585         4.041978         1.823370
 H        -0.997374         3.045734         2.213773
 H        -0.886525         4.710712         0.180602
 H         0.073851         3.321122         0.517039
 H        -2.365892         1.498890        -1.986467
