19
Iteration:  3344
 O        -0.522102         0.214152         0.446422
 C        -1.808172         0.851927         0.158602
 C        -3.279135         0.288560        -0.069095
 C        -3.359745         1.819921        -0.109578
 C        -2.406446         1.899662         1.176013
 C        -1.797623         3.208129         1.532446
 C        -0.780785         3.546044         0.317632
 O        -1.341641         3.146641        -0.981630
 C        -2.034058         1.942933        -0.931408
 H        -0.278917        -0.167259        -0.437433
 H        -3.654311        -0.342329        -0.926812
 H        -3.659846        -0.218927         0.918754
 H        -4.382875         2.438143        -0.223098
 H        -2.884551         1.254396         1.898821
 H        -2.525936         4.020479         1.573067
 H        -1.342065         3.253264         2.564940
 H        -0.526668         4.581502         0.461517
 H         0.146418         2.995796         0.429557
 H        -2.071236         1.457798        -1.885353
