19
Iteration:  2262charge 0 multiplicity 1
 O        -0.592254         0.191907         0.527871
 C        -1.766140         0.879629         0.178898
 C        -3.163785         0.312253        -0.143095
 C        -3.354794         1.818111        -0.026373
 C        -2.401983         1.907635         1.129199
 C        -1.676971         3.173663         1.421393
 C        -0.759114         3.530382         0.253290
 O        -1.485567         3.193656        -0.953522
 C        -2.091369         1.941178        -0.932173
 H        -0.868844        -0.586357         1.121265
 H        -3.223125        -0.009523        -1.120232
 H        -3.502225        -0.193460         0.704443
 H        -4.285085         2.348040        -0.361030
 H        -2.799374         1.507662         2.045176
 H        -2.462930         3.874222         1.672939
 H        -0.974480         3.000661         2.268059
 H        -0.416624         4.537336         0.117850
 H         0.005574         2.801554         0.413145
 H        -2.255306         1.531911        -1.921246
