19
Iteration:  3637charge 0 multiplicity 1
 O        -0.535773         0.193297         0.411417
 C        -1.750317         0.857548         0.281723
 C        -3.239440         0.280419        -0.149216
 C        -3.336907         1.868445        -0.168459
 C        -2.478282         1.889842         1.119595
 C        -1.746920         3.157795         1.533780
 C        -0.752532         3.626958         0.355900
 O        -1.417191         3.199273        -0.941750
 C        -2.069367         1.868841        -0.945489
 H        -0.795664        -0.708255         0.740204
 H        -3.327235        -0.296255        -1.034849
 H        -3.784942        -0.207080         0.710606
 H        -4.309465         2.389178        -0.490928
 H        -3.058505         1.438194         1.934037
 H        -2.473423         3.980862         1.971984
 H        -0.967859         2.988601         2.259906
 H        -0.651773         4.708581         0.232636
 H         0.250911         3.123299         0.424789
 H        -1.744455         1.438611        -1.894382
