19
Iteration:  2439
 O        -0.596931         0.332594         0.471959
 C        -1.783799         0.908838         0.142967
 C        -3.151262         0.300052        -0.163828
 C        -3.371320         1.883705        -0.016226
 C        -2.488508         1.871376         1.250308
 C        -1.661211         3.136767         1.484806
 C        -0.793774         3.533874         0.234528
 O        -1.405655         3.080881        -0.971874
 C        -2.095260         1.898766        -0.894951
 H        -0.681557        -0.624592         0.759856
 H        -3.188761         0.054859        -1.241533
 H        -3.572720        -0.597188         0.446054
 H        -4.329676         2.427087        -0.499982
 H        -2.866391         1.313062         2.102228
 H        -2.190947         4.129438         1.707836
 H        -0.957761         2.906002         2.391127
 H        -0.590727         4.607815         0.227211
 H         0.226422         3.024760         0.275274
 H        -2.263777         1.478945        -1.913313
