19
Iteration:   661charge 0 multiplicity 1
 O        -0.728877        -0.079332         0.594131
 C        -1.784872         0.819986         0.226700
 C        -3.201490         0.320063        -0.042506
 C        -3.261344         1.791703        -0.075940
 C        -2.402510         2.025242         1.182163
 C        -1.626493         3.284412         1.374597
 C        -0.746134         3.599574         0.152691
 O        -1.530966         3.237092        -1.042378
 C        -2.004568         1.882885        -0.921424
 H        -0.061952         0.382891         1.181586
 H        -3.472127        -0.254743        -0.947353
 H        -3.657829        -0.057616         0.889743
 H        -4.228447         2.274961        -0.381583
 H        -2.841807         1.713611         2.114344
 H        -2.328817         4.037674         1.484083
 H        -1.021070         3.240458         2.272407
 H        -0.719960         4.621360         0.133134
 H         0.303303         3.093400         0.201263
 H        -2.089670         1.457387        -1.829004
