19
Iteration:  3037
 O        -0.505827         0.250852         0.291657
 C        -1.751152         0.911497         0.205722
 C        -3.208136         0.345708        -0.091085
 C        -3.394861         1.801847        -0.044136
 C        -2.432327         1.880783         1.250661
 C        -1.828916         3.256631         1.451670
 C        -0.737228         3.355086         0.307820
 O        -1.375946         3.138132        -0.969588
 C        -2.100851         1.956534        -0.898545
 H        -0.504551        -0.199293         1.108157
 H        -3.225541        -0.151837        -1.000930
 H        -3.475590        -0.281461         0.758723
 H        -4.263791         2.362735        -0.240588
 H        -3.103409         1.514546         2.119685
 H        -2.644334         3.947883         1.342688
 H        -1.306700         3.603699         2.374687
 H        -0.310305         4.366324         0.268528
 H         0.059800         2.626478         0.538870
 H        -2.268235         1.621227        -1.911263
