19
Iteration:  4959
 O        -0.531606         0.262264         0.284013
 C        -1.701337         0.821503         0.159358
 C        -3.100400         0.203002        -0.423247
 C        -3.329801         1.778400        -0.252904
 C        -2.622170         1.828301         1.160333
 C        -1.932995         3.124773         1.601254
 C        -0.754630         3.527924         0.637894
 O        -1.320531         3.323083        -0.758991
 C        -2.025469         2.044681        -0.932843
 H        -0.518965        -0.527187         0.806879
 H        -3.260023        -0.299840        -1.334508
 H        -3.681940        -0.372892         0.255676
 H        -4.344548         2.067308        -0.596270
 H        -3.255458         1.233103         1.807845
 H        -2.614358         3.977922         1.634761
 H        -1.537004         3.105841         2.579735
 H        -0.364503         4.531675         0.742395
 H         0.086029         2.804570         0.959062
 H        -1.863462         1.911836        -1.950916
