19
Iteration:   780charge 0 multiplicity 1
 O        -0.701689        -0.016498         0.363448
 C        -1.788452         0.907251         0.212124
 C        -3.220892         0.296440         0.019247
 C        -3.337191         1.853271         0.020128
 C        -2.384556         1.947543         1.325768
 C        -1.845490         3.378722         1.375476
 C        -0.811757         3.632350         0.236850
 O        -1.198785         3.015902        -0.994041
 C        -2.027403         1.893634        -0.954403
 H        -0.228011         0.153627        -0.426817
 H        -3.280810        -0.249945        -0.879422
 H        -3.634542        -0.234648         0.900891
 H        -4.314797         2.386897        -0.117333
 H        -2.783896         1.498970         2.169706
 H        -2.721524         4.016869         1.225754
 H        -1.416189         3.714868         2.403168
 H        -0.719499         4.655005         0.094062
 H         0.189140         3.312319         0.550976
 H        -2.285264         1.560479        -1.946413
