19
Iteration:  3306charge 0 multiplicity 1
 O        -0.666375         0.125148         0.538271
 C        -1.770595         0.888229         0.177872
 C        -3.158777         0.282440        -0.216203
 C        -3.393886         1.899915        -0.056494
 C        -2.444988         1.840787         1.215378
 C        -1.622321         3.158036         1.550012
 C        -0.840847         3.616518         0.262475
 O        -1.378760         3.120512        -1.055131
 C        -2.108899         1.962697        -0.852436
 H         0.213028         0.291341         0.007134
 H        -3.219398        -0.004837        -1.286711
 H        -3.454059        -0.462834         0.525471
 H        -4.336867         2.278074        -0.077108
 H        -2.857751         1.524022         2.239042
 H        -2.478057         3.844667         1.702133
 H        -0.964248         2.985339         2.407699
 H        -0.859034         4.714791         0.031522
 H         0.240202         3.344448         0.345776
 H        -2.081768         1.495711        -1.883635
