19
Iteration:  4937charge 0 multiplicity 1
 O        -0.519695         0.295180         0.317413
 C        -1.709297         1.005487         0.101165
 C        -3.074793         0.300537        -0.254250
 C        -3.419145         1.816316        -0.278005
 C        -2.589083         1.859212         1.081710
 C        -1.940442         3.002599         1.596117
 C        -0.868154         3.464699         0.610602
 O        -1.328622         3.211904        -0.727437
 C        -1.919174         2.043212        -0.999847
 H        -0.847680        -0.660113         0.235537
 H        -3.023730        -0.316362        -1.119662
 H        -3.323345        -0.387845         0.516366
 H        -4.286731         2.390330        -0.640706
 H        -3.173994         1.221227         1.738202
 H        -2.666491         3.754493         1.907884
 H        -1.360298         2.806518         2.456734
 H        -0.617132         4.464874         0.875565
 H         0.039763         2.803909         0.880396
 H        -1.520269         1.649595        -1.876234
