19
Iteration:  2090
 O        -0.598672         0.260658         0.465560
 C        -1.822169         0.862009         0.250086
 C        -3.175447         0.265684        -0.017771
 C        -3.363666         1.807378        -0.080909
 C        -2.474532         1.902336         1.101777
 C        -1.624793         3.142518         1.431475
 C        -0.779208         3.551067         0.253020
 O        -1.405175         3.197401        -0.992543
 C        -2.089532         1.917008        -0.976738
 H        -0.686462        -0.299429         1.196969
 H        -3.324957        -0.206364        -0.986578
 H        -3.688380        -0.291235         0.796559
 H        -4.416655         2.160637        -0.115320
 H        -2.978528         1.692955         2.021627
 H        -2.204321         3.962478         1.854087
 H        -0.920703         2.883366         2.280324
 H        -0.564355         4.577034         0.279735
 H         0.165309         3.052896         0.196624
 H        -1.964961         1.497521        -1.926079
