19
Iteration:  3003charge 0 multiplicity 1
 O        -0.555251         0.251960         0.358085
 C        -1.812603         0.900043         0.138436
 C        -3.240358         0.290509        -0.077803
 C        -3.431247         1.772907        -0.067679
 C        -2.444032         1.843113         1.224975
 C        -1.709841         3.196855         1.494002
 C        -0.757709         3.504302         0.296958
 O        -1.318784         3.145924        -0.977738
 C        -2.097735         1.937198        -0.935186
 H        -0.292020         0.482840         1.247300
 H        -3.488523        -0.184118        -0.988601
 H        -3.541347        -0.328577         0.768790
 H        -4.264584         2.416244        -0.202341
 H        -2.987805         1.479320         2.191652
 H        -2.461820         3.987096         1.523397
 H        -1.109427         3.093428         2.467305
 H        -0.500724         4.589304         0.061160
 H         0.161131         2.968249         0.575025
 H        -2.203078         1.517895        -1.918448
