19
Iteration:   817
 O        -0.633906        -0.054367         0.559617
 C        -1.772002         0.812073         0.256442
 C        -3.241901         0.340736        -0.032901
 C        -3.293711         1.882308        -0.078954
 C        -2.402101         1.923577         1.241463
 C        -1.718347         3.303712         1.450351
 C        -0.806730         3.619018         0.240306
 O        -1.372712         3.173267        -1.022558
 C        -2.077455         1.922898        -1.040507
 H        -0.043620        -0.253263        -0.202946
 H        -3.538181        -0.377687        -0.868831
 H        -3.758047        -0.163705         0.811052
 H        -4.161684         2.515336        -0.177205
 H        -2.736506         1.526037         2.255320
 H        -2.451519         4.081153         1.359316
 H        -1.179523         3.322818         2.378943
 H        -0.850989         4.737275         0.006666
 H         0.164402         3.098109         0.215677
 H        -2.188117         1.681401        -2.093424
