19
Iteration:  4646
 O        -0.528758         0.113704         0.305269
 C        -1.744951         0.910517         0.174651
 C        -3.067889         0.275041        -0.145392
 C        -3.427387         1.816656        -0.226121
 C        -2.618323         1.910828         1.123431
 C        -1.893893         3.130317         1.583182
 C        -0.942064         3.485151         0.524600
 O        -1.236343         3.278132        -0.779348
 C        -1.931685         1.970459        -0.970575
 H        -0.105452         0.118904        -0.511672
 H        -3.179494        -0.121667        -1.140667
 H        -3.634782        -0.231250         0.647473
 H        -4.278739         2.408678        -0.595990
 H        -3.168353         1.363804         1.929445
 H        -2.652403         3.897334         1.689615
 H        -1.353289         2.913884         2.508680
 H        -0.620106         4.493564         0.341054
 H         0.017121         2.964399         0.678465
 H        -1.860974         1.666034        -2.013635
