19
Iteration:  2547charge 0 multiplicity 1
 O        -0.604740         0.139015         0.340782
 C        -1.764436         0.906911         0.192871
 C        -3.218468         0.335817        -0.100587
 C        -3.395068         1.821929        -0.042735
 C        -2.316071         1.863117         1.163022
 C        -1.793333         3.201497         1.515700
 C        -0.881797         3.616804         0.291940
 O        -1.280799         3.099658        -0.965419
 C        -2.080478         1.914986        -0.901799
 H        -0.510091        -0.419762         1.186247
 H        -3.282265        -0.283367        -0.950806
 H        -3.802677        -0.018669         0.748650
 H        -4.235574         2.565778        -0.382104
 H        -2.551080         1.369054         2.154851
 H        -2.545491         3.996124         1.582169
 H        -1.301864         3.178518         2.431472
 H        -0.823533         4.681965         0.167713
 H         0.150992         3.223517         0.329634
 H        -2.126824         1.680273        -1.996235
