19
Iteration:  3361charge 0 multiplicity 1
 O        -0.583256         0.241379         0.333390
 C        -1.712248         0.917100         0.156881
 C        -3.150445         0.291412        -0.003779
 C        -3.382451         1.833628        -0.129205
 C        -2.537438         1.939234         1.176395
 C        -1.773501         3.256501         1.433335
 C        -0.773056         3.456597         0.406025
 O        -1.365104         3.113544        -0.865833
 C        -2.069229         1.888816        -0.942578
 H        -0.525081        -0.558057        -0.276815
 H        -3.139035        -0.261628        -0.953841
 H        -3.589336        -0.319569         0.779460
 H        -4.293423         2.314810        -0.296699
 H        -2.883214         1.634966         2.186279
 H        -2.569630         4.039285         1.611022
 H        -1.231527         3.243950         2.373836
 H        -0.473571         4.489659         0.077659
 H         0.151680         2.848505         0.598938
 H        -2.089169         1.622957        -2.037417
