19
Iteration:  4317charge 0 multiplicity 1
 O        -0.605573         0.184496         0.358834
 C        -1.752300         0.871009         0.165038
 C        -3.238672         0.190477        -0.181965
 C        -3.405818         1.761172        -0.174355
 C        -2.474784         1.933106         1.202261
 C        -1.745597         3.255967         1.567918
 C        -0.818320         3.537322         0.373009
 O        -1.308686         3.164120        -0.900106
 C        -2.053442         1.954415        -0.923240
 H         0.163382         0.763992         0.740493
 H        -3.255598        -0.282028        -1.161488
 H        -3.762450        -0.470258         0.506173
 H        -4.290195         2.383668        -0.229949
 H        -2.906432         1.517716         2.101114
 H        -2.564193         3.953515         1.688772
 H        -1.176316         2.996750         2.487087
 H        -0.456188         4.555429         0.208021
 H         0.165169         3.046013         0.689200
 H        -2.021625         1.641326        -2.011693
