19
Iteration:  4413
 O        -0.515192         0.240548         0.334597
 C        -1.807884         0.863358         0.202510
 C        -3.175141         0.326745        -0.172746
 C        -3.448183         1.775050        -0.146132
 C        -2.443378         1.803975         1.156762
 C        -1.848766         3.148952         1.574756
 C        -0.833874         3.521816         0.386527
 O        -1.303395         3.214815        -0.929933
 C        -1.970700         1.993626        -0.940786
 H        -0.562500        -0.272344         1.204392
 H        -3.351154        -0.119054        -1.192758
 H        -3.737534        -0.252440         0.598376
 H        -4.303457         2.360661        -0.418363
 H        -2.982381         1.291566         2.090931
 H        -2.586149         3.954668         1.562851
 H        -1.256942         3.158173         2.545910
 H        -0.535342         4.587554         0.469757
 H         0.066510         2.941245         0.602183
 H        -1.909480         1.595158        -1.971348
