19
Iteration:  3393
 O        -0.555514         0.236946         0.358656
 C        -1.701453         0.889779         0.130600
 C        -3.164500         0.310927        -0.129528
 C        -3.411991         1.772266        -0.055923
 C        -2.583383         1.891334         1.325677
 C        -1.805142         3.271399         1.411497
 C        -0.735940         3.388279         0.301986
 O        -1.356046         3.198411        -0.933126
 C        -2.024431         2.001394        -0.913912
 H        -0.635397        -0.665643         0.744941
 H        -3.186196        -0.211910        -1.062370
 H        -3.596895        -0.325025         0.565342
 H        -4.356991         2.178698        -0.144170
 H        -2.894518         1.332884         2.232061
 H        -2.597663         4.094459         1.349568
 H        -1.262645         3.506197         2.369003
 H        -0.189424         4.383261         0.309661
 H         0.088773         2.638532         0.604352
 H        -2.256209         1.536722        -1.920967
