19
Iteration:  3240charge 0 multiplicity 1
 O        -0.632399         0.083533         0.339096
 C        -1.744715         0.847580         0.198337
 C        -3.156857         0.295099        -0.110510
 C        -3.372389         1.843368         0.012575
 C        -2.350628         1.870601         1.205896
 C        -1.761772         3.303481         1.481756
 C        -0.852870         3.529269         0.285843
 O        -1.385133         3.138053        -0.961362
 C        -2.047788         1.966171        -0.924178
 H        -0.056925         0.438985         0.963190
 H        -3.543839        -0.160180        -1.090611
 H        -3.716960        -0.169553         0.727230
 H        -4.282206         2.308351        -0.243106
 H        -2.982981         1.490159         2.065230
 H        -2.590859         4.018882         1.590341
 H        -1.093447         3.413446         2.349689
 H        -0.432538         4.545922         0.117240
 H        -0.071251         2.824238         0.382833
 H        -2.100169         1.599834        -2.001142
