19
Iteration:  2502
 O        -0.525973         0.167427         0.282819
 C        -1.777121         0.959222         0.260499
 C        -3.150321         0.300925        -0.029885
 C        -3.402269         1.816165        -0.122204
 C        -2.434004         1.931910         1.219696
 C        -1.775380         3.340968         1.431664
 C        -0.775701         3.414204         0.380220
 O        -1.395034         3.154150        -0.921582
 C        -2.115233         1.901378        -0.917051
 H        -0.711647        -0.828303         0.450775
 H        -3.113158        -0.034712        -1.042373
 H        -3.569543        -0.469121         0.570366
 H        -4.429846         2.224324        -0.347882
 H        -2.774302         1.496985         2.207961
 H        -2.576890         4.093413         1.348020
 H        -1.231892         3.525978         2.292297
 H        -0.345805         4.351288         0.158743
 H         0.067373         2.708867         0.595222
 H        -2.013533         1.544512        -1.982853
