19
Iteration:  2594
 O        -0.620519         0.125117         0.357420
 C        -1.814014         0.923099         0.267291
 C        -3.156733         0.292709        -0.127024
 C        -3.350862         1.834040        -0.145096
 C        -2.510214         1.792208         1.223593
 C        -1.693843         3.147271         1.478767
 C        -0.802404         3.690225         0.276916
 O        -1.353848         3.119848        -1.002631
 C        -2.054370         1.961459        -0.860859
 H        -0.416346         0.214392         1.273480
 H        -3.276948        -0.227521        -1.021905
 H        -3.646390        -0.163576         0.724891
 H        -4.283004         2.373294        -0.184840
 H        -3.113444         1.500215         2.057020
 H        -2.172757         3.948548         2.022773
 H        -0.850244         2.927163         2.153913
 H        -0.736154         4.813841         0.226987
 H         0.143994         3.166863         0.230105
 H        -2.068019         1.559212        -1.826777
