19
Iteration:  2095charge 0 multiplicity 1
 O        -0.594050         0.265672         0.448558
 C        -1.826725         0.872985         0.237450
 C        -3.169145         0.256784         0.021607
 C        -3.350024         1.821948        -0.123594
 C        -2.521775         1.898838         1.112784
 C        -1.618905         3.127558         1.414000
 C        -0.758151         3.520548         0.237529
 O        -1.426635         3.206933        -0.958251
 C        -2.066492         1.957376        -0.948767
 H        -0.788712        -0.343207         1.254876
 H        -3.257135        -0.320274        -0.923933
 H        -3.568918        -0.371291         0.816740
 H        -4.311997         2.317027        -0.094992
 H        -3.013488         1.578535         2.085041
 H        -2.373091         3.901309         1.785185
 H        -0.911312         2.998859         2.217051
 H        -0.539292         4.645608         0.161728
 H         0.212117         2.928727         0.159708
 H        -1.980949         1.367907        -2.019585
