19
Iteration:  2649
 O        -0.553039         0.241886         0.374921
 C        -1.835343         0.863897         0.212227
 C        -3.193331         0.183909        -0.070444
 C        -3.307806         1.866094        -0.067966
 C        -2.460063         1.905683         1.197959
 C        -1.774531         3.191766         1.442194
 C        -0.800190         3.417586         0.327102
 O        -1.385216         3.263695        -0.987585
 C        -2.004712         1.955478        -0.917975
 H        -0.676885        -0.484898         0.943627
 H        -3.330340        -0.243479        -1.015007
 H        -3.734794        -0.207250         0.752626
 H        -4.201855         2.364780        -0.244847
 H        -2.911799         1.414318         2.086788
 H        -2.504131         3.971684         1.312500
 H        -1.206938         3.257832         2.346973
 H        -0.350025         4.431287         0.504052
 H         0.104059         2.802439         0.235774
 H        -2.256818         1.726509        -1.896775
