19
Iteration:  4708charge 0 multiplicity 1
 O        -0.592213         0.125257         0.414999
 C        -1.759850         0.853492         0.161505
 C        -3.087908         0.312296        -0.362112
 C        -3.332290         1.816233        -0.177802
 C        -2.548411         1.701072         1.163946
 C        -1.839339         3.083868         1.671135
 C        -0.863549         3.593544         0.426776
 O        -1.311230         3.337228        -0.879255
 C        -2.021190         2.053276        -0.984656
 H        -0.353700         0.299730         1.295461
 H        -3.178218        -0.149827        -1.375165
 H        -3.587217        -0.381618         0.378219
 H        -4.241836         2.374109        -0.479439
 H        -3.037323         1.015817         1.855266
 H        -2.608213         3.869190         1.859163
 H        -1.383297         2.941593         2.661959
 H        -0.514008         4.654795         0.432956
 H         0.015140         2.992109         0.765257
 H        -1.821163         1.751465        -2.050875
