19
Iteration:   619
 O        -0.692192         0.057037         0.404567
 C        -1.805051         0.870560         0.265046
 C        -3.197212         0.353563         0.014226
 C        -3.396874         1.916024         0.041424
 C        -2.479972         1.932395         1.259084
 C        -1.714413         3.270531         1.393941
 C        -0.883345         3.692580         0.203344
 O        -1.167995         2.927317        -1.075670
 C        -2.025483         1.846320        -0.903239
 H         0.055139         0.556096         0.107657
 H        -3.333675        -0.279534        -0.907355
 H        -3.722598        -0.070952         0.895524
 H        -4.309768         2.494885        -0.207807
 H        -2.897316         1.565648         2.235139
 H        -2.448764         4.163675         1.450770
 H        -1.123159         3.280071         2.318848
 H        -1.047105         4.667331        -0.114423
 H         0.186117         3.563506         0.267786
 H        -2.161730         1.437159        -1.888920
