19
Iteration:  3820
 O        -0.722198        -0.085271         0.477749
 C        -1.733445         0.859261         0.173031
 C        -3.125372         0.287486        -0.115854
 C        -3.285893         1.812890        -0.080501
 C        -2.416666         1.888933         1.188004
 C        -1.828636         3.256596         1.541214
 C        -0.813553         3.671904         0.249057
 O        -1.359206         3.239475        -1.020213
 C        -2.042998         1.954058        -0.916546
 H         0.150225         0.458194         0.435071
 H        -3.316562        -0.357305        -0.986334
 H        -3.572156        -0.152745         0.835920
 H        -4.163390         2.509873        -0.251114
 H        -2.845697         1.291824         2.017218
 H        -2.543618         4.089701         1.524125
 H        -1.336030         3.182719         2.551010
 H        -0.734858         4.747422         0.111934
 H         0.192875         3.192201         0.607203
 H        -2.170182         1.517394        -1.924437
