19
Iteration:  3406
 O        -0.498587         0.228278         0.389847
 C        -1.808120         0.892676         0.161474
 C        -3.156098         0.283654        -0.157351
 C        -3.350798         1.863461         0.005273
 C        -2.419751         1.876762         1.171806
 C        -1.824104         3.206752         1.400361
 C        -0.765749         3.412643         0.374741
 O        -1.378157         3.175323        -0.937697
 C        -2.106773         1.946803        -0.910736
 H        -0.810640        -0.323662         1.150566
 H        -3.424286         0.002010        -1.160098
 H        -3.553370        -0.316325         0.684459
 H        -4.235323         2.469528        -0.267951
 H        -2.901671         1.451342         2.087365
 H        -2.565707         4.049462         1.230971
 H        -1.442364         3.277370         2.395762
 H        -0.398153         4.487857         0.386419
 H         0.044534         2.671061         0.378916
 H        -2.098601         1.711568        -1.965693
