19
Iteration:  1050
 O        -0.574053         0.166059         0.565995
 C        -1.844597         0.802483         0.241354
 C        -3.254338         0.389136        -0.060257
 C        -3.392125         1.955498        -0.148097
 C        -2.403142         1.862319         1.127052
 C        -1.533196         3.049696         1.456318
 C        -0.881866         3.612181         0.212332
 O        -1.412989         3.141945        -1.019753
 C        -2.072592         1.853247        -0.971768
 H        -0.359350         0.669947         1.429387
 H        -3.479684        -0.112281        -1.013179
 H        -3.673166        -0.206165         0.810684
 H        -4.291400         2.607973        -0.241974
 H        -2.775452         1.338201         2.044742
 H        -2.176926         3.844843         1.904385
 H        -0.626275         2.785239         2.233928
 H        -0.934083         4.724257         0.223189
 H         0.241975         3.389848         0.229040
 H        -2.150705         1.457580        -1.945241
