19
Iteration:  3319charge 0 multiplicity 1
 O        -0.601087         0.155939         0.554435
 C        -1.793826         0.848526         0.200687
 C        -3.181251         0.367111        -0.190050
 C        -3.360267         1.838096         0.037390
 C        -2.433053         1.820485         1.225680
 C        -1.730543         3.122104         1.413264
 C        -0.851536         3.581944         0.216892
 O        -1.342540         3.146009        -0.970585
 C        -2.049578         1.967877        -0.939808
 H        -0.034208         0.361059        -0.161590
 H        -3.399453        -0.082531        -1.201933
 H        -3.820449        -0.247084         0.586815
 H        -4.205842         2.506433        -0.170888
 H        -2.813276         1.176521         2.060912
 H        -2.356233         3.968951         1.736642
 H        -1.081201         3.043777         2.245151
 H        -0.837306         4.709808         0.318018
 H         0.153495         3.257344         0.325773
 H        -2.302868         1.644111        -1.937383
