19
Iteration:  3289
 O        -0.693537         0.034105         0.471620
 C        -1.809635         0.894681         0.229120
 C        -3.121781         0.269778        -0.118991
 C        -3.380898         1.743490        -0.097798
 C        -2.465394         1.954344         1.222287
 C        -1.640724         3.194335         1.529442
 C        -0.827997         3.662149         0.285235
 O        -1.369103         3.179807        -0.987586
 C        -2.087638         1.930649        -0.988495
 H         0.030239         0.676930         0.122222
 H        -3.077855        -0.238821        -1.089708
 H        -3.730162        -0.302491         0.661171
 H        -4.309717         2.424594        -0.344580
 H        -2.787590         1.348627         2.050911
 H        -2.103534         4.005702         2.100386
 H        -0.781150         2.971110         2.226100
 H        -0.836155         4.757131         0.308807
 H         0.197379         3.227956         0.218052
 H        -2.195978         1.634355        -2.020223
