19
Iteration:  2687charge 0 multiplicity 1
 O        -0.511484         0.240945         0.302577
 C        -1.730407         0.868299         0.137109
 C        -3.149147         0.218493        -0.052127
 C        -3.390061         1.823689        -0.067116
 C        -2.543166         2.022890         1.206139
 C        -1.768830         3.302818         1.434574
 C        -0.774954         3.452820         0.400095
 O        -1.323586         3.061359        -0.921636
 C        -2.133533         1.968967        -0.900120
 H        -0.595175        -0.768949         0.274751
 H        -3.206445        -0.395525        -1.043592
 H        -3.748201        -0.409030         0.687430
 H        -4.363708         2.423369        -0.279536
 H        -3.034268         1.635041         2.103340
 H        -2.351226         4.259922         1.504980
 H        -1.322247         3.274885         2.499585
 H        -0.562083         4.503197         0.335752
 H         0.040668         2.773010         0.644838
 H        -2.204863         1.704215        -2.022829
