19
Iteration:  1052
 O        -0.564347         0.159432         0.564279
 C        -1.864730         0.805488         0.243508
 C        -3.237084         0.377500        -0.081246
 C        -3.403110         1.944615        -0.131411
 C        -2.410233         1.867546         1.122920
 C        -1.532942         3.072300         1.487006
 C        -0.864848         3.623388         0.219131
 O        -1.414306         3.141104        -1.029694
 C        -2.074788         1.834352        -0.966245
 H        -0.381730         0.646708         1.375919
 H        -3.483907        -0.098879        -1.007872
 H        -3.705282        -0.128594         0.796663
 H        -4.311813         2.628227        -0.278455
 H        -2.722069         1.327671         2.061707
 H        -2.110441         3.868216         1.907380
 H        -0.716271         2.811489         2.153767
 H        -0.876959         4.671181         0.194279
 H         0.180782         3.380907         0.223458
 H        -2.160471         1.503584        -2.004500
