19
Iteration:  3935charge 0 multiplicity 1
 O        -0.593026         0.144995         0.371855
 C        -1.785805         0.895358         0.240823
 C        -3.176135         0.389100        -0.045663
 C        -3.364331         1.862341        -0.163016
 C        -2.627807         1.907361         1.221074
 C        -1.722207         3.139633         1.533891
 C        -0.830464         3.624522         0.327853
 O        -1.291264         3.092749        -0.979730
 C        -2.019191         1.827858        -0.889316
 H         0.043571         0.467934        -0.373944
 H        -3.201931        -0.279660        -0.951892
 H        -3.599971        -0.151285         0.780745
 H        -4.197998         2.434089        -0.536697
 H        -3.079690         1.365427         2.110435
 H        -2.488148         3.927573         1.694229
 H        -1.195799         2.955222         2.450398
 H        -0.829174         4.764562         0.128624
 H         0.305427         3.268661         0.344151
 H        -1.895440         1.413037        -1.918350
