19
Iteration:  2436charge 0 multiplicity 1
 O        -0.579400         0.313494         0.477300
 C        -1.794496         0.896177         0.134072
 C        -3.142225         0.302422        -0.159387
 C        -3.376106         1.891812        -0.014515
 C        -2.486402         1.869639         1.253986
 C        -1.623989         3.147212         1.479630
 C        -0.834948         3.548671         0.233112
 O        -1.394316         3.086182        -0.963968
 C        -2.115602         1.881689        -0.894325
 H        -0.781353        -0.541121         0.756479
 H        -3.226462        -0.030167        -1.188424
 H        -3.587969        -0.525711         0.321726
 H        -4.225213         2.437864        -0.535299
 H        -2.924108         1.347900         2.159169
 H        -2.261054         4.070967         1.733032
 H        -0.953198         2.975313         2.264253
 H        -0.557080         4.573354         0.301562
 H         0.168186         3.021931         0.301945
 H        -2.184714         1.558332        -2.010004
