19
Iteration:  3991
 O        -0.593988         0.218438         0.517329
 C        -1.806313         0.908535         0.260916
 C        -3.114425         0.225407        -0.223986
 C        -3.300765         1.817648         0.012763
 C        -2.501112         1.840916         1.229564
 C        -1.783644         3.199174         1.330890
 C        -0.756960         3.420371         0.297622
 O        -1.348300         3.219366        -0.947518
 C        -2.139881         2.094370        -0.904798
 H        -0.665413        -0.584574        -0.043623
 H        -2.915319        -0.121494        -1.257281
 H        -3.628385        -0.409130         0.474604
 H        -4.312862         2.272628        -0.023009
 H        -2.769435         1.297993         2.180397
 H        -2.584091         3.976822         1.130860
 H        -1.396250         3.313235         2.308807
 H        -0.395886         4.521812         0.334765
 H         0.187611         2.670219         0.382321
 H        -2.202270         1.717689        -1.927179
