19
Iteration:  4854charge 0 multiplicity 1
 O        -0.570355         0.007704         0.366592
 C        -1.709218         0.833938         0.152134
 C        -3.056247         0.318759        -0.313081
 C        -3.293364         1.808993        -0.236367
 C        -2.563996         1.852584         1.075652
 C        -1.977105         3.108853         1.642128
 C        -0.918134         3.518932         0.587314
 O        -1.336710         3.330237        -0.838785
 C        -1.981543         2.085249        -0.941461
 H         0.203542         0.623357         0.299277
 H        -3.078549        -0.220126        -1.286972
 H        -3.605551        -0.107465         0.563899
 H        -4.232834         2.353634        -0.477001
 H        -3.043485         1.208857         1.821389
 H        -2.639064         3.900054         2.019838
 H        -1.233886         2.838966         2.449187
 H        -0.494423         4.546860         0.666087
 H        -0.128924         2.823850         0.645346
 H        -1.838263         2.023502        -2.036899
