19
Iteration:  2434charge 0 multiplicity 1
 O        -0.562333         0.302056         0.477388
 C        -1.802066         0.882822         0.140629
 C        -3.137544         0.304482        -0.160592
 C        -3.386567         1.892769        -0.020884
 C        -2.483582         1.871676         1.253156
 C        -1.603095         3.160559         1.473712
 C        -0.860408         3.547767         0.237307
 O        -1.385811         3.095343        -0.961653
 C        -2.127860         1.876182        -0.903555
 H        -0.874161        -0.578158         0.788657
 H        -3.258109        -0.100463        -1.183601
 H        -3.628656        -0.473263         0.306205
 H        -4.115490         2.425911        -0.486359
 H        -2.949171         1.403826         2.174795
 H        -2.302765         3.954296         1.760281
 H        -0.908369         3.028729         2.215236
 H        -0.547635         4.609333         0.322980
 H         0.095627         3.035439         0.330645
 H        -2.124201         1.635412        -2.010036
