19
Iteration:  2510
 O        -0.535508         0.164394         0.275753
 C        -1.769751         0.850550         0.273310
 C        -3.138347         0.277673        -0.090711
 C        -3.428521         1.793820        -0.071533
 C        -2.457336         1.960829         1.284178
 C        -1.823943         3.360100         1.429321
 C        -0.737722         3.442009         0.288845
 O        -1.362070         3.159609        -0.959972
 C        -2.077939         1.975856        -0.860605
 H        -0.811347        -0.787008         0.537006
 H        -3.184575        -0.178418        -1.148521
 H        -3.611376        -0.437247         0.615542
 H        -4.208628         2.325783        -0.411387
 H        -2.759690         1.396988         2.185077
 H        -2.615459         4.086696         1.422599
 H        -1.313058         3.364576         2.417827
 H        -0.365065         4.487065         0.298460
 H         0.084701         2.805733         0.563953
 H        -2.244542         1.557425        -1.864661
