19
Iteration:   239
 O        -0.750742        -0.057521         0.375597
 C        -1.756952         0.878772         0.198728
 C        -3.138576         0.248929         0.154592
 C        -3.369944         1.828774         0.005054
 C        -2.437933         2.000996         1.186980
 C        -1.820561         3.422048         1.285212
 C        -0.620610         3.614227         0.210082
 O        -1.356757         3.119315        -0.985770
 C        -2.067555         1.868550        -0.922255
 H        -0.177888         0.117436         1.086464
 H        -3.327496        -0.343695        -0.765665
 H        -3.424074        -0.395611         1.044717
 H        -4.147994         2.405623        -0.227918
 H        -2.715029         1.534013         2.154991
 H        -2.557848         4.186211         0.893351
 H        -1.630938         3.725409         2.397596
 H        -0.222383         4.677702         0.031146
 H         0.168361         2.882806         0.411876
 H        -2.300179         1.593247        -1.984320
