19
Iteration:  4641
 O        -0.534688         0.088362         0.292914
 C        -1.727024         0.922981         0.160763
 C        -3.046862         0.322337        -0.090904
 C        -3.449817         1.831032        -0.274121
 C        -2.613081         1.898752         1.123853
 C        -1.918192         3.132771         1.584293
 C        -0.893583         3.438472         0.513499
 O        -1.285470         3.246983        -0.765802
 C        -1.919848         1.988765        -0.978142
 H         0.132832         0.453374        -0.454023
 H        -3.186952        -0.111897        -1.127427
 H        -3.591119        -0.321847         0.636413
 H        -4.320686         2.431353        -0.586283
 H        -3.209968         1.472388         1.922129
 H        -2.720189         3.908828         1.661946
 H        -1.371246         3.012520         2.536636
 H        -0.638526         4.559780         0.528581
 H         0.152781         2.974670         0.700516
 H        -1.898041         1.560556        -2.012240
