19
Iteration:  2882
 O        -0.592856         0.136618         0.307234
 C        -1.743923         0.808685         0.211311
 C        -3.146853         0.347873        -0.035139
 C        -3.304447         1.832677        -0.038525
 C        -2.542593         1.947907         1.227637
 C        -1.848239         3.243359         1.479835
 C        -0.799144         3.428600         0.275975
 O        -1.359044         3.140837        -0.957275
 C        -2.033331         1.917184        -0.912412
 H         0.042641         0.903976         0.048765
 H        -3.282301        -0.277147        -0.918527
 H        -3.658153        -0.085677         0.822598
 H        -4.253362         2.479804        -0.209492
 H        -2.993293         1.517969         2.226749
 H        -2.484682         4.104529         1.344065
 H        -1.333502         3.267236         2.508068
 H        -0.371143         4.509037         0.358385
 H         0.180552         2.933229         0.369062
 H        -2.192632         1.610847        -1.950505
