19
Iteration:   654
 O        -0.722255        -0.081868         0.586874
 C        -1.736220         0.789198         0.195373
 C        -3.229952         0.332873         0.009629
 C        -3.353490         1.848138        -0.026474
 C        -2.391511         1.989118         1.131384
 C        -1.614672         3.306155         1.404097
 C        -0.769482         3.648116         0.210031
 O        -1.482707         3.191369        -1.072588
 C        -1.991051         1.868821        -1.001060
 H        -0.063516         0.441053         1.037964
 H        -3.441345        -0.486722        -0.730086
 H        -3.677900        -0.003284         0.948928
 H        -4.193967         2.372856        -0.366795
 H        -2.820496         1.634401         2.137142
 H        -2.495273         4.109678         1.620928
 H        -1.083497         3.157236         2.367953
 H        -0.691767         4.800892         0.146896
 H         0.149275         3.157369         0.334883
 H        -1.968403         1.394192        -2.102610
