19
Iteration:  3659charge 0 multiplicity 1
 O        -0.634719         0.056051         0.502253
 C        -1.703220         0.882657         0.164112
 C        -3.182105         0.309861        -0.080550
 C        -3.284606         1.851076        -0.138480
 C        -2.440934         1.911640         1.152764
 C        -1.728485         3.183936         1.524026
 C        -0.954203         3.559032         0.326420
 O        -1.406543         3.250796        -0.935224
 C        -1.931523         1.925027        -1.004929
 H        -0.867288        -0.811586         0.133098
 H        -3.430210        -0.327581        -0.889677
 H        -3.478065        -0.204379         0.906526
 H        -4.204649         2.472971        -0.442428
 H        -2.859867         1.357636         1.994178
 H        -2.479060         4.075975         1.769845
 H        -1.027183         3.111102         2.381288
 H        -0.974527         4.628860         0.150402
 H         0.116784         3.229393         0.428384
 H        -2.028536         1.809651        -2.116497
