19
Iteration:  3827
 O        -0.764172        -0.084480         0.435925
 C        -1.727422         0.783522         0.190150
 C        -3.098499         0.279642        -0.064673
 C        -3.314851         1.876253        -0.128371
 C        -2.431995         1.884787         1.176752
 C        -1.792261         3.316767         1.519297
 C        -0.825246         3.707502         0.262216
 O        -1.376966         3.222130        -0.976698
 C        -2.005357         1.920413        -0.913149
 H         0.085616         0.391563         0.522792
 H        -3.197109        -0.237474        -1.050865
 H        -3.517952        -0.270750         0.732877
 H        -4.216001         2.414338        -0.391944
 H        -2.578303         1.423345         2.175859
 H        -2.751259         3.920348         1.764879
 H        -1.259400         3.091115         2.473931
 H        -0.760444         4.820889         0.152624
 H         0.137056         3.257635         0.368414
 H        -1.940312         1.481115        -1.900286
