19
Iteration:  3676charge 0 multiplicity 1
 O        -0.668118        -0.019498         0.532415
 C        -1.740016         0.901616         0.183638
 C        -3.105790         0.326730        -0.104790
 C        -3.335325         1.804301        -0.103185
 C        -2.382781         1.819348         1.183876
 C        -1.803222         3.203141         1.452847
 C        -0.848062         3.738734         0.321569
 O        -1.361125         3.224748        -1.031922
 C        -2.044944         1.994664        -0.912113
 H        -0.598692        -0.682483        -0.142170
 H        -3.261158        -0.176660        -1.130947
 H        -3.684935        -0.258004         0.582013
 H        -4.215075         2.411677        -0.056359
 H        -2.846176         1.418180         2.106380
 H        -2.592903         3.806728         1.754666
 H        -1.294044         3.017797         2.427913
 H        -0.552129         4.831268         0.324434
 H         0.070085         3.171684         0.452814
 H        -2.030521         1.444765        -1.882653
