19
Iteration:  3744charge 0 multiplicity 1
 O        -0.587466         0.296357         0.353436
 C        -1.725189         0.913399         0.248550
 C        -3.195049         0.250851         0.000778
 C        -3.374119         1.813547        -0.198908
 C        -2.603706         1.918158         1.126752
 C        -1.784177         3.174093         1.491624
 C        -0.732234         3.467127         0.400093
 O        -1.314136         3.091886        -0.954992
 C        -2.082559         1.967813        -0.956934
 H         0.190374         0.495549        -0.135048
 H        -3.333962        -0.555862        -0.761573
 H        -3.626986        -0.231382         0.940194
 H        -4.322163         2.456581        -0.260573
 H        -3.146883         1.610637         2.022164
 H        -2.351798         3.996578         1.721432
 H        -1.268996         2.954030         2.438817
 H        -0.198459         4.390630         0.211338
 H         0.025196         2.840914         0.797037
 H        -2.175155         1.501322        -1.991643
