19
Iteration:  4585
 O        -0.543779         0.271284         0.462670
 C        -1.708459         0.918442         0.154989
 C        -3.034096         0.311379        -0.345946
 C        -3.399596         1.808770        -0.042754
 C        -2.533558         1.720282         1.145925
 C        -1.868739         3.074050         1.512964
 C        -0.786141         3.495598         0.398002
 O        -1.299651         3.216425        -0.888580
 C        -2.069387         2.063406        -0.919109
 H        -0.894505        -0.651738         0.631092
 H        -3.328854         0.073320        -1.400936
 H        -3.776884        -0.203278         0.276922
 H        -4.238630         2.449801        -0.184374
 H        -2.856900         1.290296         2.086619
 H        -2.746348         3.793040         1.486127
 H        -1.567068         3.122727         2.577839
 H        -0.663750         4.584544         0.544914
 H         0.151421         2.918424         0.657971
 H        -2.367233         1.850262        -2.004953
