19
Iteration:   382charge 0 multiplicity 1
 O        -0.659469        -0.028467         0.354938
 C        -1.726222         0.851328         0.278022
 C        -3.196206         0.279062         0.007443
 C        -3.374868         1.839318        -0.032049
 C        -2.410815         1.999427         1.271659
 C        -1.825552         3.410805         1.270628
 C        -0.712723         3.545426         0.289121
 O        -1.320843         3.088990        -1.032841
 C        -2.121947         1.912452        -0.879991
 H        -0.209796         0.058199         1.192003
 H        -3.280457        -0.216776        -0.984762
 H        -3.672123        -0.212329         0.839644
 H        -4.214324         2.386897        -0.209419
 H        -2.679226         1.595565         2.229158
 H        -2.584652         4.175883         1.097821
 H        -1.463614         3.648844         2.272150
 H        -0.404526         4.680226         0.062487
 H         0.341217         3.136194         0.467365
 H        -2.325505         1.442275        -1.879146
