19
Iteration:  2962charge 0 multiplicity 1
 O        -0.630361         0.079261         0.380124
 C        -1.756746         0.859834         0.255739
 C        -3.182914         0.288725        -0.081545
 C        -3.314902         1.853168        -0.092945
 C        -2.527711         1.855512         1.250956
 C        -1.677130         3.106324         1.461160
 C        -0.826443         3.669057         0.246865
 O        -1.413412         3.227193        -1.041364
 C        -2.013627         1.947123        -0.918133
 H        -0.222497         0.243078         1.313096
 H        -3.580513        -0.139998        -1.013573
 H        -3.674445        -0.179810         0.840173
 H        -4.231799         2.340190        -0.331463
 H        -2.946942         1.433676         2.141102
 H        -2.269933         3.868273         1.852690
 H        -0.881559         2.968576         2.237687
 H        -0.818359         4.705807         0.440048
 H         0.125455         3.176897         0.202998
 H        -1.805630         1.449785        -1.874095
