19
Iteration:  1618charge 0 multiplicity 1
 O        -0.624620         0.116284         0.296041
 C        -1.817362         0.835700         0.297799
 C        -3.191991         0.336228        -0.031655
 C        -3.365333         1.873401        -0.129490
 C        -2.457080         1.874091         1.198707
 C        -1.652331         3.220631         1.468173
 C        -0.927525         3.710844         0.256020
 O        -1.251126         3.092148        -1.011829
 C        -2.006840         1.847505        -0.815345
 H        -0.540069        -0.543362         1.037270
 H        -3.335832        -0.141960        -0.987007
 H        -3.786648        -0.074228         0.775849
 H        -4.316089         2.446662        -0.333830
 H        -3.065688         1.668233         2.089694
 H        -2.509095         3.974397         1.802168
 H        -1.003147         3.035004         2.312555
 H        -1.109483         4.741868        -0.016570
 H         0.130248         3.469723         0.451184
 H        -2.019696         1.432161        -1.911863
