19
Iteration:  4362charge 0 multiplicity 1
 O        -0.632480         0.109681         0.491389
 C        -1.748869         0.929725         0.196046
 C        -3.110514         0.285054        -0.189250
 C        -3.289481         1.787246        -0.135512
 C        -2.478282         1.812091         1.181206
 C        -1.828849         3.241156         1.572336
 C        -0.865306         3.512049         0.375651
 O        -1.385090         3.267775        -0.970377
 C        -2.014601         2.002588        -0.966749
 H        -0.306116        -0.018122        -0.482086
 H        -3.226935        -0.312429        -1.062684
 H        -3.586216        -0.172225         0.676196
 H        -4.306118         2.161852        -0.309887
 H        -2.906498         1.272595         1.974774
 H        -2.359113         4.160322         1.721978
 H        -1.159147         2.934547         2.386038
 H        -0.345600         4.463661         0.440765
 H        -0.052879         2.797124         0.627968
 H        -2.039444         1.569315        -2.004304
