19
Iteration:  1483
 O        -0.575236         0.215134         0.393276
 C        -1.828528         0.937090         0.152540
 C        -3.149358         0.257004        -0.005469
 C        -3.522021         1.831454        -0.010307
 C        -2.468885         1.939499         1.182847
 C        -1.723557         3.248603         1.413369
 C        -0.800505         3.531774         0.349022
 O        -1.167927         3.001747        -0.993885
 C        -2.119408         2.007660        -0.970471
 H        -0.947109        -0.723431         0.206802
 H        -3.189264        -0.345484        -0.900705
 H        -3.376387        -0.234004         0.935644
 H        -4.448393         2.358889         0.097338
 H        -2.795996         1.439822         2.092957
 H        -2.488806         4.128041         1.322330
 H        -1.294290         3.273724         2.475694
 H        -0.656162         4.706085         0.152356
 H         0.146854         3.015083         0.574370
 H        -2.301141         1.604042        -1.984599
