19
Iteration:  3833charge 0 multiplicity 1
 O        -0.748529        -0.108148         0.400415
 C        -1.773247         0.821167         0.224367
 C        -3.104991         0.283662        -0.057040
 C        -3.333273         1.870485        -0.140239
 C        -2.406118         1.916732         1.183534
 C        -1.751014         3.310555         1.450105
 C        -0.905535         3.736779         0.315221
 O        -1.393684         3.187444        -0.928862
 C        -1.941102         1.892085        -0.927766
 H         0.069591         0.274283         0.617916
 H        -3.148539        -0.133105        -1.058073
 H        -3.618295        -0.408137         0.716197
 H        -4.296681         2.330174        -0.436814
 H        -2.798678         1.534996         2.157940
 H        -2.557634         3.862381         1.826643
 H        -1.059846         3.280297         2.301235
 H        -0.704825         4.793548         0.200765
 H         0.196722         3.335497         0.279380
 H        -1.828711         1.602769        -2.023594
