19
Iteration:  4740
 O        -0.590557         0.111809         0.406642
 C        -1.701076         0.900749         0.170941
 C        -3.084407         0.313039        -0.279347
 C        -3.345361         1.780550        -0.256706
 C        -2.655940         1.870678         1.019277
 C        -1.854700         3.107927         1.587013
 C        -0.786261         3.548374         0.487820
 O        -1.422067         3.294506        -0.677550
 C        -1.964200         1.991510        -0.960144
 H         0.165836         0.378579        -0.270609
 H        -3.117859        -0.156719        -1.283252
 H        -3.436274        -0.304898         0.581323
 H        -4.221249         2.337333        -0.643091
 H        -3.092271         1.260693         1.835536
 H        -2.563785         3.904467         1.866636
 H        -1.333777         2.676327         2.469726
 H        -0.424438         4.578473         0.612269
 H         0.051775         2.886336         0.606148
 H        -1.726730         1.518127        -1.952601
