19
Iteration:  2421charge 0 multiplicity 1
 O        -0.536380         0.188125         0.459512
 C        -1.780842         0.852638         0.258183
 C        -3.226670         0.268873        -0.170062
 C        -3.386245         1.845369        -0.100626
 C        -2.415954         1.897584         1.180652
 C        -1.656479         3.164819         1.513525
 C        -0.857319         3.572805         0.269198
 O        -1.387163         3.163765        -0.998946
 C        -2.081502         1.968060        -0.946801
 H        -0.666837        -0.653946         0.983995
 H        -3.285703        -0.175880        -1.192106
 H        -3.711696        -0.111682         0.711629
 H        -4.264743         2.395397        -0.074587
 H        -2.907779         1.548749         2.107997
 H        -2.347223         3.890916         1.906935
 H        -0.900395         3.037566         2.309754
 H        -0.783397         4.682203         0.082635
 H         0.117108         3.132277         0.374813
 H        -2.206418         1.514000        -1.929402
