19
Iteration:  4893
 O        -0.565837         0.178398         0.558481
 C        -1.734396         0.859122         0.110412
 C        -3.103345         0.314227        -0.520501
 C        -3.395858         1.779795        -0.183505
 C        -2.525745         1.686838         1.115673
 C        -1.860022         3.095602         1.509619
 C        -0.820239         3.591195         0.528715
 O        -1.334000         3.326772        -0.754332
 C        -1.978324         2.041178        -0.878703
 H        -0.228594        -0.090981        -0.364779
 H        -3.289772         0.116352        -1.578641
 H        -3.649804        -0.399099         0.071753
 H        -4.342305         2.308125        -0.168228
 H        -2.870663         1.149619         2.042532
 H        -2.684900         3.818322         1.557726
 H        -1.540434         2.950712         2.509179
 H        -0.639383         4.663219         0.684975
 H         0.204650         3.055201         0.748507
 H        -2.138231         1.664387        -1.833941
