19
Iteration:  4108
 O        -0.609417         0.088031         0.380850
 C        -1.737658         0.818034         0.191403
 C        -3.265731         0.321137        -0.118398
 C        -3.287995         1.781298        -0.016594
 C        -2.432761         1.801958         1.206639
 C        -1.913765         3.206336         1.390486
 C        -0.757894         3.580460         0.318405
 O        -1.322125         3.256230        -0.952145
 C        -2.033228         1.995762        -0.910200
 H        -0.276761         0.266405         1.213351
 H        -3.379087        -0.113842        -1.182669
 H        -3.527316        -0.260446         0.756752
 H        -4.220139         2.318478        -0.143060
 H        -2.902301         1.264220         2.000478
 H        -2.661533         4.038209         1.365350
 H        -1.297451         3.247285         2.381606
 H        -0.375190         4.644293         0.294907
 H         0.140884         2.993169         0.457895
 H        -2.044983         1.759404        -2.044447
