19
Iteration:   507
 O        -0.668224         0.108270         0.791064
 C        -1.824357         0.855220         0.264741
 C        -3.138160         0.294898        -0.100700
 C        -3.348468         1.850895        -0.119515
 C        -2.415281         1.896834         1.219119
 C        -1.583090         3.260800         1.407796
 C        -0.674969         3.469030         0.057618
 O        -1.608349         3.309948        -1.014913
 C        -2.024290         1.922081        -1.006848
 H        -0.464965        -0.646142         0.198165
 H        -3.249699        -0.163671        -1.094268
 H        -3.646386        -0.370726         0.683473
 H        -4.352625         2.417824        -0.378315
 H        -2.899498         1.493342         2.136525
 H        -2.207763         4.184285         1.547520
 H        -0.976698         3.085643         2.352915
 H        -0.308745         4.416573         0.031917
 H        -0.000243         2.597400         0.066020
 H        -1.970172         1.435187        -1.913042
