19
Iteration:  4107
 O        -0.606792         0.085948         0.384637
 C        -1.739934         0.830176         0.196793
 C        -3.271997         0.324682        -0.125608
 C        -3.285995         1.783215        -0.015666
 C        -2.427730         1.792397         1.216093
 C        -1.917204         3.201719         1.392211
 C        -0.757896         3.573337         0.317531
 O        -1.318369         3.260599        -0.956147
 C        -2.039685         2.001040        -0.918789
 H        -0.273756         0.254983         1.241999
 H        -3.354561        -0.139292        -1.151292
 H        -3.530980        -0.277403         0.727734
 H        -4.211283         2.317912        -0.148312
 H        -2.895926         1.242866         2.003354
 H        -2.661299         4.037054         1.354520
 H        -1.280862         3.280085         2.360107
 H        -0.432614         4.640563         0.268034
 H         0.196520         2.989508         0.465713
 H        -2.064452         1.755792        -2.028087
