19
Iteration:   981
 O        -0.706979        -0.061212         0.359053
 C        -1.798996         0.817327         0.187307
 C        -3.244806         0.333494        -0.000173
 C        -3.342960         1.889457        -0.000307
 C        -2.443185         1.898670         1.272583
 C        -1.749362         3.299835         1.480767
 C        -0.894542         3.740710         0.211791
 O        -1.239612         3.083941        -1.066182
 C        -1.975875         1.871891        -0.889419
 H         0.043273         0.532542         0.578991
 H        -3.370034        -0.146230        -1.019536
 H        -3.606548        -0.273579         0.850119
 H        -4.253724         2.393173        -0.279446
 H        -2.829175         1.480102         2.223815
 H        -2.494242         4.116937         1.716327
 H        -0.912062         3.199999         2.316429
 H        -0.902486         4.869926        -0.029883
 H         0.238053         3.507097         0.423035
 H        -1.971488         1.453292        -1.916370
