19
Iteration:  4032
 O        -0.557403         0.328313         0.414388
 C        -1.756157         0.893305         0.203622
 C        -3.178946         0.282139        -0.032795
 C        -3.330298         1.837235        -0.208981
 C        -2.516858         1.919728         1.130811
 C        -1.748253         3.106877         1.491762
 C        -0.784344         3.493473         0.352257
 O        -1.420203         3.171420        -0.859140
 C        -2.015850         1.854989        -1.005803
 H        -0.659345        -0.670619         0.604132
 H        -3.387431        -0.368710        -0.958601
 H        -3.835104        -0.028775         0.784349
 H        -4.099034         2.573944        -0.366843
 H        -3.050619         1.489414         1.994472
 H        -2.287767         3.974824         1.848790
 H        -1.065892         2.711753         2.254169
 H        -0.695579         4.590867         0.228660
 H         0.170820         3.062888         0.400501
 H        -2.074402         1.750757        -2.138705
