19
Iteration:  3426charge 0 multiplicity 1
 O        -0.549768         0.173014         0.396572
 C        -1.786940         0.880977         0.153912
 C        -3.252879         0.310664        -0.114326
 C        -3.378282         1.808020        -0.155392
 C        -2.423103         1.849274         1.220994
 C        -1.773697         3.198339         1.524224
 C        -0.766597         3.555278         0.327530
 O        -1.358987         3.144152        -0.938891
 C        -2.071431         1.962884        -0.969651
 H        -0.270045         0.274954         1.287462
 H        -3.207052        -0.247651        -1.015536
 H        -3.787323        -0.132724         0.667790
 H        -4.303193         2.328814        -0.134829
 H        -2.878652         1.228729         1.987314
 H        -2.590571         4.000906         1.608849
 H        -1.088759         3.194565         2.407529
 H        -0.506104         4.653987         0.328721
 H         0.128858         2.854856         0.491433
 H        -2.117978         1.710490        -2.101365
