19
Iteration:  1456
 O        -0.546450         0.226031         0.398877
 C        -1.839110         0.825658         0.267402
 C        -3.329120         0.340915        -0.053734
 C        -3.326931         1.847612        -0.071750
 C        -2.438854         1.900925         1.191069
 C        -1.716619         3.241318         1.462336
 C        -0.894750         3.656039         0.237991
 O        -1.229889         3.023555        -0.975682
 C        -2.026507         1.864151        -0.871132
 H        -0.649196        -0.546028        -0.260816
 H        -3.386599        -0.104523        -1.093015
 H        -3.806221        -0.232446         0.774657
 H        -4.142733         2.634215        -0.137422
 H        -2.983231         1.479719         2.066225
 H        -2.378050         4.011334         1.678793
 H        -1.054323         3.029468         2.310996
 H        -0.840133         4.694413         0.087459
 H         0.074911         3.191780         0.443638
 H        -2.139576         1.456871        -1.879750
