19
Iteration:  2871
 O        -0.517423         0.184603         0.325229
 C        -1.779704         0.898368         0.145941
 C        -3.208759         0.292512        -0.013935
 C        -3.357521         1.854515        -0.089491
 C        -2.474806         1.990879         1.199559
 C        -1.804476         3.290034         1.519309
 C        -0.794479         3.429927         0.353198
 O        -1.376691         3.055080        -0.891291
 C        -2.081609         1.878289        -0.956413
 H         0.204623         0.596627        -0.175250
 H        -3.382951        -0.154246        -0.998594
 H        -3.574935        -0.261907         0.849070
 H        -4.160907         2.614982        -0.444693
 H        -3.006098         1.321144         1.993050
 H        -2.556431         4.058440         1.531163
 H        -1.262322         3.452674         2.520961
 H        -0.428805         4.495151         0.033359
 H        -0.029129         2.630693         0.551215
 H        -2.079252         1.520039        -1.992202
