19
Iteration:  1780charge 0 multiplicity 1
 O        -0.654558         0.146775         0.505731
 C        -1.706852         0.956572         0.184028
 C        -3.261392         0.289463        -0.095211
 C        -3.396059         1.833196        -0.035773
 C        -2.432250         1.888067         1.202763
 C        -1.682315         3.250238         1.428524
 C        -0.817764         3.499581         0.248601
 O        -1.323751         3.109253        -1.010559
 C        -2.115882         1.922499        -0.910497
 H         0.081247         0.355849        -0.015393
 H        -3.185433        -0.283273        -1.063217
 H        -3.621702        -0.318925         0.786781
 H        -4.332211         2.464260         0.039840
 H        -2.746301         1.336686         2.105381
 H        -2.365756         4.029247         1.548593
 H        -1.104271         3.186928         2.435701
 H        -0.726288         4.658105         0.058445
 H         0.189653         3.088141         0.480395
 H        -2.187299         1.436437        -1.863040
