19
Iteration:  1366charge 0 multiplicity 1
 O        -0.567900         0.165254         0.423371
 C        -1.749051         0.841496         0.233073
 C        -3.265764         0.378900        -0.038062
 C        -3.340255         1.869470        -0.118544
 C        -2.378897         1.945014         1.201036
 C        -1.704574         3.231916         1.432485
 C        -0.784763         3.392688         0.271092
 O        -1.474738         3.236656        -1.025826
 C        -2.081404         1.841774        -0.905077
 H        -0.611420        -0.096687         1.384790
 H        -3.149926        -0.103040        -1.022243
 H        -3.758706        -0.234665         0.747891
 H        -4.090620         2.564094        -0.317158
 H        -2.581036         1.354249         2.138817
 H        -2.463418         4.054992         1.435875
 H        -1.148181         3.300691         2.311788
 H        -0.476058         4.426939         0.192794
 H         0.002773         2.696767         0.495060
 H        -1.985256         1.323135        -1.942777
