19
Iteration:   503charge 0 multiplicity 1
 O        -0.666684         0.120342         0.807566
 C        -1.795975         0.854677         0.239539
 C        -3.122316         0.281624        -0.081196
 C        -3.355402         1.839559        -0.135032
 C        -2.413934         1.913494         1.204749
 C        -1.568014         3.243326         1.428077
 C        -0.685066         3.423917         0.073750
 O        -1.593022         3.331244        -1.046248
 C        -2.063655         1.951578        -0.985539
 H        -0.517170        -0.692191         0.301993
 H        -3.337611        -0.202179        -1.067850
 H        -3.545205        -0.272145         0.742097
 H        -4.243436         2.395641        -0.276409
 H        -3.050414         1.515624         2.007522
 H        -2.293828         4.036001         1.579407
 H        -1.061478         3.070733         2.375121
 H        -0.283878         4.589696         0.000116
 H         0.008657         2.447218         0.000695
 H        -2.070833         1.527176        -2.060128
