19
Iteration:  1584
 O        -0.564224         0.247156         0.477693
 C        -1.778452         0.818958         0.156920
 C        -3.280840         0.357330        -0.138683
 C        -3.398107         1.912310        -0.029114
 C        -2.453945         1.836535         1.148945
 C        -1.606068         3.131338         1.464949
 C        -0.889183         3.607773         0.235720
 O        -1.314767         3.045895        -0.994617
 C        -2.027932         1.902768        -0.903920
 H        -0.579911         0.100518         1.410435
 H        -3.633667        -0.098091        -1.042117
 H        -3.672226        -0.211453         0.688817
 H        -4.282826         2.496020        -0.207109
 H        -2.961728         1.419794         2.037908
 H        -2.326219         3.935122         1.917617
 H        -0.800750         3.027204         2.233773
 H        -0.872860         4.714563         0.074914
 H         0.151793         3.435646         0.497940
 H        -2.334172         1.411617        -1.862619
