19
Iteration:  2696
 O        -0.511682         0.274474         0.311343
 C        -1.792289         0.825561         0.168249
 C        -3.198058         0.255209        -0.060203
 C        -3.343589         1.799104        -0.031518
 C        -2.545587         1.925951         1.218121
 C        -1.841500         3.299724         1.463547
 C        -0.738599         3.470751         0.403638
 O        -1.282573         3.148151        -0.953232
 C        -2.126416         1.902163        -0.969761
 H        -0.641592        -0.739511         0.234500
 H        -3.413817        -0.206322        -1.092182
 H        -3.521348        -0.208096         0.879244
 H        -4.243248         2.438832        -0.143436
 H        -2.961447         1.675515         2.156585
 H        -2.587782         4.079685         1.408273
 H        -1.215182         3.235082         2.432656
 H        -0.320282         4.498158         0.186778
 H         0.220558         2.989403         0.580596
 H        -2.168038         1.466561        -1.975344
