19
Iteration:   897charge 0 multiplicity 1
 O        -0.563312         0.380344         0.555065
 C        -1.755309         0.939143         0.143054
 C        -3.235743         0.290666        -0.046109
 C        -3.390085         1.908343        -0.065071
 C        -2.507510         1.942265         1.183915
 C        -1.670199         3.154831         1.461612
 C        -0.756422         3.292609         0.236915
 O        -1.401195         3.131428        -1.006185
 C        -2.079386         1.892253        -0.942110
 H        -0.420558        -0.437931        -0.013138
 H        -3.426910        -0.238087        -0.976708
 H        -3.491240        -0.196911         0.910497
 H        -4.400369         2.367091        -0.057758
 H        -3.052081         1.424174         2.045461
 H        -2.185790         4.133248         1.429524
 H        -1.153914         3.130581         2.341103
 H        -0.279894         4.263357         0.250039
 H         0.130707         2.704110         0.246875
 H        -2.150213         1.359966        -1.916398
