19
Iteration:  3425charge 0 multiplicity 1
 O        -0.554390         0.180382         0.398857
 C        -1.772292         0.873063         0.154866
 C        -3.253485         0.310787        -0.115925
 C        -3.383671         1.816180        -0.154904
 C        -2.422445         1.849442         1.215234
 C        -1.777654         3.202421         1.521978
 C        -0.761891         3.549266         0.326879
 O        -1.362340         3.145284        -0.937010
 C        -2.075116         1.966356        -0.971156
 H        -0.241902         0.222260         1.304281
 H        -3.192690        -0.269452        -1.017303
 H        -3.792972        -0.139144         0.649479
 H        -4.272932         2.339107        -0.090064
 H        -2.853226         1.221576         1.979699
 H        -2.599787         3.976267         1.580991
 H        -1.090621         3.196103         2.437202
 H        -0.504711         4.631569         0.317098
 H         0.132052         2.850873         0.528919
 H        -2.153425         1.678073        -2.106087
