19
Iteration:  2830
 O        -0.598895         0.308183         0.456087
 C        -1.738627         0.915486         0.154237
 C        -3.157165         0.190727        -0.120884
 C        -3.434002         1.932914        -0.028802
 C        -2.540363         1.807413         1.275754
 C        -1.767551         3.168029         1.400039
 C        -0.744774         3.449846         0.301170
 O        -1.298910         3.145799        -0.965811
 C        -2.094593         1.978506        -0.893604
 H        -0.404815        -0.370229        -0.320434
 H        -3.376818        -0.246782        -1.119641
 H        -3.334743        -0.481906         0.819558
 H        -4.383768         2.455788        -0.281234
 H        -2.890322         1.472836         2.195674
 H        -2.455987         4.026402         1.335776
 H        -1.222552         3.293356         2.366885
 H        -0.494051         4.508134         0.392770
 H         0.344073         2.986378         0.294507
 H        -2.287916         1.511133        -1.872856
