19
Iteration:  4530charge 0 multiplicity 1
 O        -0.599291         0.108933         0.299772
 C        -1.788723         0.850355         0.200169
 C        -3.073177         0.227709        -0.221124
 C        -3.341366         1.858420        -0.256125
 C        -2.604906         1.874595         1.129012
 C        -1.714618         3.134478         1.518605
 C        -0.839275         3.590458         0.491441
 O        -1.431406         3.243095        -0.811878
 C        -1.959156         1.932486        -0.922158
 H        -0.276573         0.625369         1.034308
 H        -3.162641        -0.462884        -1.077545
 H        -3.602297        -0.032897         0.689628
 H        -4.190076         2.489709        -0.486616
 H        -3.120232         1.615787         2.033937
 H        -2.420008         3.948506         1.811920
 H        -1.206934         2.810319         2.429819
 H        -0.771240         4.699364         0.542210
 H         0.233166         3.169234         0.578954
 H        -1.737808         1.606125        -1.943158
