19
Iteration:   440
 O        -0.543929         0.285536         0.424984
 C        -1.825255         0.850070         0.355114
 C        -3.287698         0.368888        -0.014461
 C        -3.378317         1.888684        -0.118347
 C        -2.462919         1.945375         1.233557
 C        -1.777357         3.258735         1.419656
 C        -0.727044         3.487437         0.149677
 O        -1.317171         2.999419        -0.949272
 C        -2.043693         1.805198        -0.903502
 H        -0.325033        -0.208709        -0.419049
 H        -3.345859        -0.144697        -1.024424
 H        -3.867129        -0.295180         0.662640
 H        -4.315669         2.514806        -0.196723
 H        -2.941092         1.785033         2.213869
 H        -2.522737         4.090272         1.516420
 H        -0.980324         3.351840         2.240284
 H        -0.661801         4.541986        -0.066244
 H         0.179729         2.963484         0.563150
 H        -2.009247         1.315243        -1.850317
