19
Iteration:  4278charge 0 multiplicity 1
 O        -0.467113         0.098743         0.403518
 C        -1.743743         0.927949         0.192458
 C        -3.300814         0.315744        -0.184958
 C        -3.375658         1.831229        -0.055102
 C        -2.438563         1.805016         1.194640
 C        -1.844488         3.164603         1.446026
 C        -0.828737         3.535544         0.343336
 O        -1.273405         3.204366        -0.941337
 C        -2.098598         1.993388        -0.932082
 H        -0.229988         0.299682         1.291293
 H        -3.244834        -0.122156        -1.204852
 H        -3.730301        -0.334392         0.624093
 H        -4.334933         2.346822        -0.261886
 H        -2.955142         1.361966         2.103598
 H        -2.614655         3.979821         1.418398
 H        -1.410105         3.348047         2.420565
 H        -0.501865         4.594029         0.417337
 H         0.029537         2.886268         0.376120
 H        -2.181883         1.634198        -1.931615
