19
Iteration:  1302charge 0 multiplicity 1
 O        -0.596461         0.306818         0.298686
 C        -1.798086         0.898179         0.179753
 C        -3.178998         0.278773        -0.026616
 C        -3.412254         1.868935        -0.014928
 C        -2.522992         1.938848         1.244206
 C        -1.797790         3.347420         1.384202
 C        -0.742556         3.417624         0.293369
 O        -1.219832         2.990894        -0.946991
 C        -2.108220         1.884976        -0.873913
 H        -0.506638        -0.619844         0.272186
 H        -3.281408        -0.207012        -1.028430
 H        -3.729874        -0.231845         0.799614
 H        -4.344986         2.385770         0.051600
 H        -2.836492         1.490512         2.195974
 H        -2.464363         4.202051         1.374261
 H        -1.244328         3.482176         2.427176
 H        -0.520890         4.447218         0.225621
 H         0.249329         2.919069         0.427279
 H        -2.122327         1.481632        -1.904278
