19
Iteration:   353charge 0 multiplicity 1
 O        -0.613676         0.127930         0.500183
 C        -1.746504         0.875655         0.292860
 C        -3.222572         0.348613        -0.038513
 C        -3.329863         1.874067        -0.100350
 C        -2.405783         1.955890         1.211961
 C        -1.709365         3.342716         1.392823
 C        -0.764521         3.509760         0.212781
 O        -1.467346         3.121437        -1.097933
 C        -2.025657         1.844105        -0.884493
 H        -0.736602        -0.723410         0.903036
 H        -3.490954        -0.360047        -0.907134
 H        -3.675038        -0.122391         0.876139
 H        -4.239788         2.585679        -0.232179
 H        -2.804353         1.401382         2.171394
 H        -2.462582         4.140350         1.646223
 H        -1.015220         3.150615         2.329298
 H        -0.405205         4.514656         0.022133
 H         0.006116         2.784971         0.261512
 H        -2.025842         1.362454        -1.852137
