19
Iteration:  4386
 O        -0.543652         0.198227         0.517237
 C        -1.790612         0.887035         0.158921
 C        -3.102594         0.236539        -0.324278
 C        -3.393642         1.813811        -0.008333
 C        -2.448603         1.815435         1.145612
 C        -1.810818         3.172867         1.468710
 C        -0.801791         3.517168         0.345045
 O        -1.348653         3.187344        -0.895528
 C        -2.089523         2.055966        -0.872329
 H        -0.705173        -0.739926         0.226685
 H        -3.240292        -0.038031        -1.359468
 H        -3.577810        -0.508523         0.315052
 H        -4.153623         2.599319        -0.200089
 H        -2.881408         1.457882         2.011603
 H        -2.448853         4.024919         1.249524
 H        -1.333536         3.221488         2.423878
 H        -0.727381         4.591577         0.507159
 H         0.233887         3.187737         0.550180
 H        -2.230617         1.778457        -1.919712
