19
Iteration:  2895charge 0 multiplicity 1
 O        -0.595459         0.070830         0.315325
 C        -1.791455         0.923553         0.268449
 C        -3.161439         0.239243        -0.053071
 C        -3.391884         1.865255        -0.047079
 C        -2.483708         1.873319         1.257216
 C        -1.785538         3.232906         1.367522
 C        -0.768800         3.524706         0.345864
 O        -1.324046         3.219265        -1.027117
 C        -2.076689         1.949869        -0.874966
 H         0.240362         0.478761         0.443469
 H        -3.318784        -0.181529        -1.041990
 H        -3.649077        -0.305197         0.828718
 H        -4.407133         2.238156        -0.235748
 H        -3.002501         1.439533         2.110773
 H        -2.515087         3.956382         1.491838
 H        -1.217464         3.298690         2.344901
 H        -0.544251         4.600517         0.221902
 H         0.112305         2.835887         0.590399
 H        -2.070112         1.418095        -1.833283
