19
Iteration:  3524
 O        -0.570610         0.038962         0.384001
 C        -1.726646         0.878945         0.187079
 C        -3.183928         0.252429        -0.173867
 C        -3.325949         1.876440        -0.019906
 C        -2.489185         1.868988         1.197956
 C        -1.793382         3.234570         1.573332
 C        -0.869069         3.629767         0.372316
 O        -1.321795         3.190147        -1.031650
 C        -2.003787         1.974824        -0.973251
 H        -0.967030        -0.587868         0.958470
 H        -3.154319        -0.219524        -1.158036
 H        -3.668642        -0.294573         0.613934
 H        -4.123835         2.532214        -0.234896
 H        -2.980518         1.324873         2.004323
 H        -2.628835         3.970138         1.679582
 H        -1.225297         3.143056         2.550706
 H        -0.844813         4.707019         0.109718
 H         0.116836         3.256032         0.651515
 H        -2.130578         1.639614        -2.077603
