19
Iteration:  2012
 O        -0.633782         0.045957         0.248763
 C        -1.778213         0.797057         0.194561
 C        -3.171857         0.325012         0.031257
 C        -3.294949         1.852065        -0.043541
 C        -2.422272         1.984964         1.151496
 C        -1.760820         3.327698         1.447256
 C        -0.925515         3.757621         0.282842
 O        -1.280274         2.993330        -0.913982
 C        -2.017502         1.857579        -0.918983
 H        -0.717194        -0.583376         0.974073
 H        -3.365764        -0.212599        -0.942553
 H        -3.573371        -0.084537         0.966246
 H        -4.283692         2.394498        -0.182547
 H        -2.727357         1.594928         2.127582
 H        -2.559304         4.017711         1.618451
 H        -1.115113         3.192122         2.385889
 H        -1.164418         4.764455         0.096007
 H         0.118916         3.556637         0.468356
 H        -2.124128         1.627501        -1.911224
