19
Iteration:  1263
 O        -0.630792         0.092630         0.506521
 C        -1.729474         0.852320         0.198198
 C        -3.203280         0.326077        -0.042036
 C        -3.349091         1.846190        -0.031330
 C        -2.397898         1.917005         1.204585
 C        -1.723696         3.249935         1.413107
 C        -0.836944         3.477954         0.240802
 O        -1.461346         3.241951        -1.002479
 C        -1.952221         1.940215        -0.951825
 H        -0.860321        -0.893154         0.479226
 H        -3.470650        -0.285306        -0.902038
 H        -3.664230        -0.147400         0.821368
 H        -4.211113         2.508380        -0.320589
 H        -2.803472         1.299591         2.021816
 H        -2.294496         4.230122         1.328147
 H        -1.064002         3.230339         2.233031
 H        -0.577745         4.578679         0.230303
 H         0.164763         3.000523         0.378796
 H        -2.030711         1.541307        -2.005423
