19
Iteration:  1254charge 0 multiplicity 1
 O        -0.679460         0.088128         0.525174
 C        -1.788612         0.857104         0.212529
 C        -3.131747         0.287157        -0.060837
 C        -3.292236         1.840312        -0.061423
 C        -2.446457         1.937982         1.193005
 C        -1.644289         3.224581         1.406768
 C        -0.790704         3.554272         0.222076
 O        -1.480051         3.238677        -0.987644
 C        -2.000021         1.922137        -0.930006
 H        -1.031050        -0.849914         0.415874
 H        -3.269721        -0.204132        -1.039808
 H        -3.467006        -0.306206         0.810511
 H        -4.189236         2.421614        -0.384547
 H        -2.818762         1.637670         2.209600
 H        -2.503408         3.926260         1.704675
 H        -1.088628         3.187187         2.279667
 H        -0.554272         4.682606         0.154730
 H         0.135995         2.988937         0.210852
 H        -2.130638         1.537460        -2.039935
