19
Iteration:  2365charge 0 multiplicity 1
 O        -0.560441         0.024520         0.279615
 C        -1.739575         0.866897         0.156815
 C        -3.136580         0.343348        -0.080964
 C        -3.375663         1.831117         0.005358
 C        -2.477529         1.942530         1.261852
 C        -1.826638         3.311128         1.502305
 C        -0.777170         3.594400         0.316238
 O        -1.334206         3.156512        -0.985236
 C        -2.073118         1.859879        -0.929380
 H        -0.406616        -0.132637         1.172968
 H        -3.407809        -0.134880        -1.070747
 H        -3.729755        -0.432944         0.470178
 H        -4.303366         2.360906        -0.277117
 H        -2.899856         1.526823         2.192796
 H        -2.639468         3.965618         1.382966
 H        -1.315309         3.530088         2.481562
 H        -0.450582         4.646751         0.054793
 H         0.127651         3.102168         0.637861
 H        -2.375633         1.404996        -1.844368
