19
Iteration:  3951
 O        -0.594352         0.118057         0.429239
 C        -1.771581         0.864109         0.199274
 C        -3.181533         0.220388        -0.044189
 C        -3.325621         1.880106        -0.175335
 C        -2.418378         1.957065         1.151223
 C        -1.796271         3.264612         1.515087
 C        -0.878544         3.495685         0.365260
 O        -1.338425         3.146996        -0.941460
 C        -2.017967         1.933858        -0.960243
 H        -0.138482         0.166262        -0.439630
 H        -3.429182        -0.315390        -0.936056
 H        -3.759628        -0.192957         0.821167
 H        -4.287598         2.438987        -0.302225
 H        -3.060515         1.642001         1.951092
 H        -2.479387         4.080845         1.805884
 H        -1.110559         3.187996         2.416133
 H        -0.622596         4.528564         0.301801
 H        -0.014985         3.000824         0.638340
 H        -2.087719         1.556578        -1.966975
