19
Iteration:  3588
 O        -0.521626         0.331322         0.368108
 C        -1.758234         0.928106         0.116705
 C        -3.229403         0.286245        -0.133193
 C        -3.458645         1.827124        -0.073589
 C        -2.465991         1.875953         1.177436
 C        -1.843922         3.182778         1.459619
 C        -0.791946         3.345443         0.384961
 O        -1.286859         3.080347        -0.900624
 C        -2.078118         2.021247        -0.953776
 H        -0.192526         0.424529         1.261124
 H        -3.196109        -0.353356        -1.125272
 H        -3.650989        -0.311383         0.693561
 H        -4.214813         2.535751        -0.121591
 H        -2.696874         1.307872         2.089712
 H        -2.527827         3.972841         1.451794
 H        -1.203350         3.328645         2.371005
 H        -0.293492         4.323340         0.466244
 H        -0.067136         2.563382         0.453335
 H        -2.103905         1.749436        -2.059360
