19
Iteration:  2691
 O        -0.511976         0.253355         0.306463
 C        -1.747207         0.841329         0.142188
 C        -3.174845         0.223689        -0.061574
 C        -3.360944         1.811126        -0.049534
 C        -2.553735         1.985694         1.204992
 C        -1.791040         3.302625         1.448951
 C        -0.768523         3.458700         0.422429
 O        -1.305518         3.097081        -0.940617
 C        -2.150378         1.943271        -0.935231
 H        -0.610549        -0.694654         0.255123
 H        -3.259757        -0.287232        -0.981195
 H        -3.663697        -0.333458         0.756791
 H        -4.232066         2.444546        -0.197726
 H        -3.023971         1.712043         2.215180
 H        -2.432565         4.227552         1.456598
 H        -1.295668         3.262971         2.375705
 H        -0.453040         4.497321         0.255162
 H         0.174089         2.876597         0.639928
 H        -2.155182         1.621238        -1.994108
