19
Iteration:  2409
 O        -0.583621         0.119113         0.407621
 C        -1.750413         0.850836         0.205375
 C        -3.212215         0.359864        -0.016245
 C        -3.319887         1.823156        -0.086164
 C        -2.472200         1.845302         1.182124
 C        -1.734772         3.168423         1.509745
 C        -0.774153         3.649207         0.268088
 O        -1.416016         3.210520        -1.038165
 C        -2.032178         1.925975        -0.938868
 H        -0.677687        -0.466367         1.116818
 H        -3.425450        -0.265704        -0.934477
 H        -3.763990        -0.349336         0.653324
 H        -4.276599         2.276496        -0.313403
 H        -2.865135         1.236184         2.000920
 H        -2.327427         4.038710         1.664923
 H        -1.240237         2.789133         2.474316
 H        -0.752355         4.787726         0.368764
 H         0.244552         3.330642         0.230203
 H        -1.966044         1.608444        -1.963264
