19
Iteration:  2550charge 0 multiplicity 1
 O        -0.611758         0.139635         0.347342
 C        -1.749734         0.902749         0.165936
 C        -3.231575         0.326124        -0.106747
 C        -3.365039         1.832693        -0.060765
 C        -2.331191         1.866244         1.159099
 C        -1.779077         3.211346         1.530582
 C        -0.893158         3.628588         0.299632
 O        -1.294265         3.088659        -0.962182
 C        -2.082796         1.902681        -0.895958
 H        -0.503357        -0.310165         1.150165
 H        -3.295118        -0.377884        -0.926863
 H        -3.835648         0.038551         0.777928
 H        -4.223301         2.555158        -0.342903
 H        -2.543366         1.383649         2.089784
 H        -2.603335         3.965712         1.626504
 H        -1.183119         3.124003         2.522769
 H        -0.745984         4.733521         0.063488
 H         0.168199         3.255115         0.390361
 H        -2.141776         1.658899        -1.917795
