19
Iteration:  2322
 O        -0.492980         0.339288         0.305831
 C        -1.814682         0.906321         0.145366
 C        -3.231103         0.289042        -0.042142
 C        -3.442808         1.821998        -0.073402
 C        -2.475366         1.938583         1.189389
 C        -1.734046         3.251639         1.533283
 C        -0.745831         3.421031         0.398927
 O        -1.319008         3.068187        -0.980820
 C        -2.112659         1.882029        -0.959446
 H        -0.656560        -0.355594         0.924757
 H        -3.538038        -0.415594        -0.916961
 H        -3.448488        -0.422167         0.827998
 H        -4.309653         2.395657        -0.369195
 H        -2.856489         1.529096         2.163332
 H        -2.454065         4.082489         1.353540
 H        -1.279290         3.466715         2.523535
 H        -0.438840         4.519898         0.311394
 H         0.211329         2.861294         0.363629
 H        -2.152629         1.424561        -1.987757
