19
Iteration:  3737
 O        -0.578619         0.253165         0.396763
 C        -1.792768         0.932772         0.171064
 C        -3.189837         0.236493         0.015839
 C        -3.336600         1.836670        -0.181768
 C        -2.545065         1.917949         1.221608
 C        -1.803605         3.150629         1.500153
 C        -0.810742         3.445423         0.389737
 O        -1.284624         3.131319        -0.964547
 C        -2.076962         1.945642        -1.012728
 H         0.102563         0.453427        -0.202768
 H        -3.412642        -0.340867        -0.857426
 H        -3.628790        -0.149864         0.948606
 H        -4.238310         2.430633        -0.250380
 H        -3.113584         1.481062         2.052061
 H        -2.418339         4.140152         1.591055
 H        -1.190259         3.092027         2.398990
 H        -0.448009         4.451005         0.153848
 H         0.123979         2.865395         0.738926
 H        -1.896679         1.565320        -2.030918
