19
Iteration:  3671
 O        -0.663541        -0.004822         0.534446
 C        -1.691061         0.925866         0.173317
 C        -3.149014         0.299432        -0.107306
 C        -3.314194         1.830268        -0.095766
 C        -2.395018         1.839092         1.166942
 C        -1.810256         3.194275         1.463879
 C        -0.866996         3.697972         0.301021
 O        -1.375403         3.224890        -0.990765
 C        -2.024264         1.987698        -0.961156
 H        -0.769082        -0.763853        -0.154246
 H        -3.304897        -0.200713        -1.013867
 H        -3.588688        -0.241732         0.796373
 H        -4.251423         2.452371        -0.182032
 H        -2.855477         1.351121         2.038793
 H        -2.648531         3.934047         1.891795
 H        -1.106500         3.042151         2.306078
 H        -0.673965         4.739536         0.444174
 H         0.137719         3.184609         0.465598
 H        -1.902006         1.418221        -1.877981
