19
Iteration:  4821
 O        -0.605413         0.222971         0.212548
 C        -1.797937         0.794626         0.161275
 C        -3.105087         0.268809        -0.353089
 C        -3.322473         1.824510        -0.217292
 C        -2.529018         1.757915         1.082407
 C        -1.912573         3.187690         1.565148
 C        -0.851833         3.538845         0.604024
 O        -1.314182         3.230495        -0.724363
 C        -1.930926         2.030879        -0.862654
 H        -0.121114         0.352765         1.103332
 H        -2.983345        -0.376231        -1.247582
 H        -3.691318        -0.313636         0.391723
 H        -4.187408         2.403321        -0.557547
 H        -2.987752         1.366367         1.977069
 H        -2.708919         3.939639         1.660202
 H        -1.579489         2.995256         2.606222
 H        -0.556566         4.573763         0.434473
 H         0.128928         3.046506         0.654553
 H        -1.798501         1.647971        -1.890245
