19
Iteration:    40
 O        -0.803949        -0.107617         0.437278
 C        -1.820962         0.806882         0.252362
 C        -3.340380         0.452632         0.070225
 C        -3.292786         1.959989         0.006201
 C        -2.302271         1.958172         1.245888
 C        -1.457815         3.289097         1.328699
 C        -1.394809         3.821706        -0.041899
 O        -0.972153         2.859136        -0.859186
 C        -1.906225         1.828745        -0.899213
 H         0.058797         0.426863         0.615599
 H        -3.678960        -0.005260        -0.857237
 H        -3.844449        -0.019517         1.006319
 H        -4.137041         2.676576        -0.214774
 H        -2.682144         1.556110         2.260355
 H        -2.035244         4.006997         1.961037
 H        -0.444829         3.157753         1.811381
 H        -2.418128         4.275412        -0.435433
 H        -0.854933         4.729936        -0.241891
 H        -1.946944         1.465638        -1.991073
