19
Iteration:  2155
 O        -0.569698         0.269944         0.310871
 C        -1.794003         0.928122         0.191627
 C        -3.154722         0.332886        -0.022910
 C        -3.409835         1.777652        -0.050178
 C        -2.463995         1.901444         1.269580
 C        -1.784677         3.250075         1.407072
 C        -0.720221         3.451567         0.330564
 O        -1.274017         3.087611        -1.046388
 C        -2.144800         1.941046        -0.865766
 H        -0.676515        -0.538028         0.879977
 H        -3.337843        -0.186639        -0.987516
 H        -3.662543        -0.235052         0.810960
 H        -4.485507         2.097520        -0.143368
 H        -2.845313         1.321084         2.099219
 H        -2.548570         3.959600         1.174135
 H        -1.412541         3.603982         2.430497
 H        -0.503551         4.484190         0.212630
 H         0.193831         2.963041         0.680707
 H        -2.144396         1.549318        -1.812653
