19
Iteration:  3758
 O        -0.511323         0.262943         0.377347
 C        -1.860760         0.919501         0.199119
 C        -3.146015         0.260419        -0.050443
 C        -3.487092         1.782062        -0.148185
 C        -2.577099         2.016402         1.129176
 C        -1.768947         3.219204         1.478866
 C        -0.698451         3.392011         0.371127
 O        -1.298952         3.125601        -0.896083
 C        -2.088841         1.863359        -0.893241
 H        -0.043327         0.958041        -0.217649
 H        -3.215039        -0.250440        -0.982151
 H        -3.660951        -0.178334         0.842959
 H        -4.435115         2.174333        -0.518989
 H        -2.997343         1.500217         1.990059
 H        -2.363061         4.158333         1.648260
 H        -1.240842         2.947495         2.386043
 H        -0.372383         4.416149         0.336543
 H         0.196398         2.790626         0.458290
 H        -1.975700         1.557799        -1.971542
