19
Iteration:  4709
 O        -0.598444         0.124560         0.410698
 C        -1.762285         0.851370         0.165231
 C        -3.086084         0.305146        -0.357937
 C        -3.330315         1.820582        -0.187236
 C        -2.555054         1.707939         1.164864
 C        -1.834071         3.082173         1.682769
 C        -0.866844         3.596160         0.421681
 O        -1.312858         3.339026        -0.874779
 C        -2.016090         2.054567        -0.992029
 H        -0.323732         0.335085         1.267242
 H        -3.149227        -0.176236        -1.363755
 H        -3.588308        -0.373294         0.396493
 H        -4.245880         2.353336        -0.495338
 H        -3.012753         1.015635         1.853589
 H        -2.622831         3.851559         1.842690
 H        -1.370053         2.965351         2.670911
 H        -0.503874         4.641359         0.481028
 H         0.043325         2.967718         0.745529
 H        -1.833115         1.719843        -2.041064
