19
Iteration:  2700charge 0 multiplicity 1
 O        -0.519121         0.278372         0.315225
 C        -1.823753         0.837983         0.194650
 C        -3.214663         0.287400        -0.061749
 C        -3.354456         1.803412        -0.028137
 C        -2.502175         1.881379         1.220801
 C        -1.859800         3.277423         1.472745
 C        -0.717516         3.498123         0.354180
 O        -1.270477         3.178002        -0.959627
 C        -2.073191         1.876973        -0.966054
 H        -0.613014        -0.661903         0.243844
 H        -3.539565        -0.152626        -1.036385
 H        -3.510928        -0.188620         0.932718
 H        -4.352196         2.385536        -0.152650
 H        -2.992948         1.444835         2.165467
 H        -2.735325         4.021011         1.420801
 H        -1.327928         3.264426         2.434116
 H        -0.350167         4.481115         0.221266
 H         0.206357         2.905189         0.564865
 H        -2.192812         1.382568        -2.019317
