19
Iteration:  2021charge 0 multiplicity 1
 O        -0.606277         0.049887         0.274713
 C        -1.763917         0.817757         0.173541
 C        -3.191392         0.315426        -0.011744
 C        -3.351186         1.837844        -0.061953
 C        -2.428668         1.951474         1.192394
 C        -1.749427         3.304752         1.505489
 C        -0.911973         3.725675         0.221101
 O        -1.238064         3.048258        -0.909974
 C        -2.043757         1.851425        -0.943795
 H        -0.632651        -0.541769         1.041666
 H        -3.711947        -0.354686        -0.788300
 H        -3.603625        -0.027444         0.983400
 H        -4.312989         2.402663        -0.006289
 H        -3.058232         1.593958         2.109761
 H        -2.587011         3.905604         1.860373
 H        -1.019322         3.437210         2.387247
 H        -1.019514         4.805741        -0.163325
 H         0.161164         3.776768         0.434680
 H        -2.009415         1.498528        -1.902104
