19
Iteration:  4054
 O        -0.535704         0.239495         0.359960
 C        -1.805876         0.854846         0.231059
 C        -3.271389         0.229782        -0.105655
 C        -3.427592         1.777037        -0.211848
 C        -2.528110         1.936490         1.166615
 C        -1.658029         3.092528         1.528124
 C        -0.789668         3.622390         0.366956
 O        -1.364456         3.220779        -0.940828
 C        -1.983694         1.921493        -0.908215
 H        -0.633658        -0.285430         1.137874
 H        -3.460862        -0.478804        -1.002337
 H        -3.782496        -0.239533         0.751327
 H        -4.340904         2.308078        -0.501060
 H        -2.948822         1.471354         2.053954
 H        -2.218100         4.005832         1.641584
 H        -0.975434         2.974748         2.394387
 H        -0.684852         4.727929         0.354294
 H         0.111673         3.150417         0.327822
 H        -1.687626         1.520184        -1.968815
