19
Iteration:  3284charge 0 multiplicity 1
 O        -0.679943         0.027499         0.453243
 C        -1.808325         0.868606         0.198448
 C        -3.153075         0.268084        -0.068771
 C        -3.342459         1.778455        -0.138607
 C        -2.486399         1.981784         1.196734
 C        -1.662004         3.172508         1.518149
 C        -0.832487         3.636726         0.262681
 O        -1.383179         3.197115        -0.954867
 C        -2.061966         1.945649        -0.944335
 H        -0.018771         0.642823         0.223874
 H        -3.154675        -0.250913        -1.056279
 H        -3.620171        -0.251672         0.762622
 H        -4.282650         2.181865        -0.233618
 H        -2.698964         1.405434         2.146644
 H        -2.194944         3.993225         2.035079
 H        -0.813822         2.844932         2.100053
 H        -0.803418         4.746461         0.233509
 H         0.219808         3.321582         0.262861
 H        -2.068553         1.673038        -2.034334
