19
Iteration:  1622
 O        -0.627122         0.098263         0.293534
 C        -1.826088         0.833815         0.263342
 C        -3.178932         0.318354        -0.000416
 C        -3.361579         1.869776        -0.116754
 C        -2.465499         1.902188         1.206120
 C        -1.695250         3.213853         1.462477
 C        -0.931285         3.709877         0.221710
 O        -1.236990         3.091305        -0.977051
 C        -2.001585         1.870464        -0.846172
 H        -0.700003        -0.544509         0.997566
 H        -3.379741        -0.161131        -0.991650
 H        -3.593720        -0.137700         0.946075
 H        -4.270522         2.511785        -0.295722
 H        -3.092662         1.616612         2.091544
 H        -2.457418         3.921215         1.770242
 H        -1.016693         3.031377         2.277839
 H        -1.030695         4.785456         0.071583
 H         0.161537         3.495756         0.340983
 H        -1.862669         1.551615        -1.858953
