19
Iteration:  3581charge 0 multiplicity 1
 O        -0.506925         0.305504         0.323294
 C        -1.773520         0.880355         0.108790
 C        -3.215341         0.339674        -0.103870
 C        -3.391396         1.811944        -0.043184
 C        -2.491297         1.872162         1.148895
 C        -1.829550         3.190891         1.423301
 C        -0.779844         3.341922         0.426802
 O        -1.308053         3.161623        -0.900950
 C        -2.059362         1.941326        -0.924285
 H        -0.314503         0.587590         1.281857
 H        -3.507087        -0.235219        -0.981377
 H        -3.701933        -0.250888         0.701213
 H        -4.450871         2.251077        -0.353226
 H        -2.890032         1.387070         2.051824
 H        -2.643167         4.052894         1.420394
 H        -1.360693         3.355627         2.431945
 H        -0.188078         4.302765         0.342258
 H         0.029810         2.578617         0.634131
 H        -2.041588         1.687230        -2.026502
