19
Iteration:  4111
 O        -0.617871         0.089732         0.359389
 C        -1.735256         0.786026         0.168590
 C        -3.232059         0.301277        -0.104264
 C        -3.306434         1.783873        -0.026654
 C        -2.447847         1.837159         1.171021
 C        -1.883864         3.228332         1.394768
 C        -0.768971         3.606232         0.323711
 O        -1.335423         3.240067        -0.938534
 C        -2.008544         1.974500        -0.890295
 H        -0.224170         0.333445         1.262293
 H        -3.465947        -0.024006        -1.177105
 H        -3.562218        -0.222135         0.838349
 H        -4.259078         2.348784        -0.122245
 H        -2.931228         1.339054         2.057904
 H        -2.656829         4.002452         1.412423
 H        -1.418173         3.158919         2.397535
 H        -0.246843         4.613458         0.386737
 H         0.022747         2.934991         0.461371
 H        -2.005687         1.753861        -1.996203
