19
Iteration:  3925
 O        -0.606651         0.158583         0.386289
 C        -1.788247         0.936963         0.273573
 C        -3.247090         0.259973        -0.089077
 C        -3.367718         1.847150        -0.109629
 C        -2.551917         1.904145         1.183229
 C        -1.750101         3.144872         1.485804
 C        -0.819190         3.610262         0.288579
 O        -1.263841         3.063305        -0.981080
 C        -1.954762         1.923934        -0.867415
 H         0.017962         0.705567        -0.186285
 H        -3.320854        -0.159296        -1.119194
 H        -3.951452        -0.135524         0.587538
 H        -4.354493         2.249145        -0.336759
 H        -3.035502         1.424735         2.093662
 H        -2.229983         4.050966         1.933958
 H        -1.130519         2.813691         2.315766
 H        -1.023834         4.728304         0.114027
 H         0.271990         3.537530         0.640437
 H        -2.160535         1.427038        -1.801216
