19
Iteration:  2789charge 0 multiplicity 1
 O        -0.502247         0.121820         0.529407
 C        -1.779545         0.868482         0.166020
 C        -3.245137         0.267781        -0.149960
 C        -3.349781         1.830518        -0.135674
 C        -2.454509         1.908621         1.182364
 C        -1.673816         3.219508         1.491952
 C        -0.802746         3.514333         0.318082
 O        -1.501280         3.281501        -0.983535
 C        -2.028813         1.925954        -0.943807
 H        -0.646419        -0.788946         0.464732
 H        -3.458363        -0.374227        -0.990989
 H        -3.570040        -0.043998         0.853396
 H        -4.114242         2.513028        -0.330502
 H        -2.848235         1.348313         2.023245
 H        -2.378122         4.094139         1.710562
 H        -1.060022         3.004591         2.335552
 H        -0.547182         4.512580         0.337544
 H         0.111104         2.987835         0.428177
 H        -2.017986         1.606370        -2.009345
