19
Iteration:  4609
 O        -0.549148         0.202992         0.297374
 C        -1.785258         0.850530         0.118819
 C        -3.148077         0.209747        -0.270561
 C        -3.408233         1.780297        -0.143131
 C        -2.479687         1.804379         1.185877
 C        -1.908999         3.241563         1.522726
 C        -0.789454         3.459060         0.455066
 O        -1.295675         3.271637        -0.795965
 C        -1.981205         2.019588        -0.927111
 H        -0.427156         0.329496         1.215535
 H        -3.155544         0.001374        -1.382218
 H        -3.628530        -0.628301         0.302748
 H        -4.321727         2.388178        -0.282575
 H        -2.942774         1.390881         2.064659
 H        -2.775420         3.934934         1.535473
 H        -1.415879         3.395299         2.496985
 H        -0.419623         4.469536         0.689513
 H        -0.012703         2.664790         0.767968
 H        -1.964502         1.807757        -2.031393
