19
Iteration:  4857
 O        -0.589145         0.004190         0.386797
 C        -1.726781         0.842064         0.148801
 C        -3.027005         0.300053        -0.333220
 C        -3.296310         1.810358        -0.243345
 C        -2.549275         1.852194         1.085275
 C        -1.967198         3.107852         1.636489
 C        -0.921422         3.531360         0.580335
 O        -1.331274         3.335290        -0.840979
 C        -1.997797         2.085761        -0.940244
 H         0.171352         0.658139         0.224405
 H        -3.123699        -0.215926        -1.280645
 H        -3.506270        -0.129334         0.538643
 H        -4.200878         2.415670        -0.379149
 H        -3.014902         1.133851         1.800320
 H        -2.636028         3.900577         2.010736
 H        -1.215164         2.897345         2.399579
 H        -0.526269         4.553365         0.769199
 H        -0.093963         2.727048         0.709501
 H        -1.898323         1.998510        -2.030293
