19
Iteration:   681charge 0 multiplicity 1
 O        -0.727304         0.003889         0.601882
 C        -1.788481         0.873020         0.394422
 C        -3.081872         0.293120        -0.112601
 C        -3.409514         1.888644        -0.055283
 C        -2.456195         1.904690         1.225671
 C        -1.576861         3.282684         1.350439
 C        -0.714963         3.513764         0.085025
 O        -1.548123         3.219523        -1.050079
 C        -2.061747         1.948784        -0.947490
 H        -0.055019         0.292912         1.181799
 H        -2.818440        -0.291487        -0.970318
 H        -3.692194        -0.396894         0.506010
 H        -4.264513         2.615735        -0.305892
 H        -2.901606         1.606057         2.135277
 H        -2.279729         4.013424         1.504848
 H        -0.921966         3.202578         2.240578
 H        -0.328129         4.525456        -0.001301
 H         0.040493         2.675297         0.209206
 H        -1.908463         1.452485        -1.905538
