19
Iteration:  1941charge 0 multiplicity 1
 O        -0.588376         0.294544         0.444633
 C        -1.780723         0.883223         0.140226
 C        -3.154254         0.259605        -0.000252
 C        -3.420296         1.767043        -0.097901
 C        -2.480257         1.941107         1.190018
 C        -1.653877         3.274503         1.464861
 C        -0.699488         3.371478         0.293572
 O        -1.455464         3.195641        -0.979005
 C        -2.090265         1.939396        -0.959964
 H        -0.572347        -0.510770         0.940018
 H        -3.200709        -0.258073        -0.951204
 H        -3.744704        -0.105348         0.884166
 H        -4.408246         2.050763        -0.306540
 H        -2.873164         1.552002         2.174686
 H        -2.357627         4.166314         1.497492
 H        -0.991293         3.266401         2.312260
 H        -0.376754         4.395352        -0.020769
 H         0.107001         2.592387         0.371214
 H        -2.129359         1.509653        -2.015692
