19
Iteration:   533charge 0 multiplicity 1
 O        -0.661955         0.087280         0.624296
 C        -1.823062         0.874585         0.299867
 C        -3.209301         0.284443        -0.071558
 C        -3.358768         1.844462        -0.097149
 C        -2.415320         1.977288         1.170086
 C        -1.609109         3.248164         1.428973
 C        -0.762624         3.598275         0.099448
 O        -1.417064         3.107260        -1.025453
 C        -2.045846         1.874886        -0.871036
 H        -0.260088        -0.235160        -0.185071
 H        -3.376505        -0.166830        -1.057795
 H        -3.715676        -0.250449         0.704552
 H        -4.194736         2.459979        -0.326126
 H        -3.091508         1.861714         2.051120
 H        -2.314436         4.128699         1.552214
 H        -1.075719         3.113425         2.379405
 H        -0.633741         4.719547         0.094908
 H         0.203673         3.262575         0.277890
 H        -2.187014         1.291385        -1.862930
