19
Iteration:  4810
 O        -0.540214         0.213524         0.267666
 C        -1.781412         0.902892         0.111194
 C        -3.122880         0.217990        -0.358958
 C        -3.373568         1.785730        -0.214941
 C        -2.522737         1.791661         1.185379
 C        -1.948243         3.141164         1.571332
 C        -0.798389         3.570703         0.537286
 O        -1.220437         3.238803        -0.758275
 C        -2.016374         2.021876        -0.917023
 H        -0.380440         0.077378         1.256045
 H        -3.085985         0.036577        -1.451661
 H        -3.817451        -0.416408         0.219190
 H        -4.398079         2.165684        -0.231945
 H        -3.037885         1.233888         1.960461
 H        -2.810793         3.825464         1.597628
 H        -1.484872         3.026247         2.584958
 H        -0.527787         4.621387         0.643099
 H        -0.064249         2.892229         1.007064
 H        -2.045407         1.848865        -2.008152
