19
Iteration:  1503charge 0 multiplicity 1
 O        -0.567333         0.240403         0.378234
 C        -1.759326         0.831628         0.178296
 C        -3.201828         0.310567        -0.019983
 C        -3.365925         1.811105        -0.008216
 C        -2.469123         1.930747         1.241915
 C        -1.866611         3.288390         1.366019
 C        -0.684691         3.418290         0.306923
 O        -1.307368         3.180453        -0.996581
 C        -2.093261         1.930721        -0.909362
 H        -0.803148        -0.707552         0.512712
 H        -3.491576        -0.148766        -0.997461
 H        -3.711323        -0.148209         0.858749
 H        -4.324879         2.315010        -0.278005
 H        -2.771122         1.489202         2.191454
 H        -2.580177         4.067595         1.323261
 H        -1.288182         3.288905         2.392381
 H        -0.208135         4.374707         0.022840
 H         0.013198         2.632039         0.621892
 H        -2.140994         1.582244        -1.919120
