19
Iteration:  3124
 O        -0.612484         0.084072         0.572103
 C        -1.790921         0.853621         0.174186
 C        -3.179695         0.295434        -0.188998
 C        -3.422612         1.851313        -0.023247
 C        -2.364177         1.821471         1.219235
 C        -1.684030         3.237717         1.447601
 C        -0.770783         3.644330         0.263517
 O        -1.386047         3.132481        -0.992573
 C        -2.134912         1.992009        -0.943749
 H         0.014793        -0.096004        -0.125357
 H        -3.254836        -0.131047        -1.127045
 H        -3.669655        -0.320901         0.570045
 H        -4.358347         2.405365        -0.164731
 H        -2.749989         1.398922         2.160526
 H        -2.528400         3.925674         1.821763
 H        -0.940018         3.095521         2.306490
 H        -1.043703         4.700461         0.232725
 H         0.278865         3.293428         0.314908
 H        -2.205204         1.638010        -1.934398
