19
Iteration:   521charge 0 multiplicity 1
 O        -0.705754         0.101969         0.698300
 C        -1.751730         0.869177         0.345074
 C        -3.220328         0.306938        -0.155143
 C        -3.329580         1.790165        -0.117197
 C        -2.410027         1.997174         1.190744
 C        -1.552506         3.263274         1.310602
 C        -0.737729         3.525534         0.155974
 O        -1.562522         3.189325        -0.985005
 C        -2.024922         1.869283        -0.863700
 H        -0.436650        -0.356852        -0.104191
 H        -3.146559        -0.128779        -1.150013
 H        -3.852264        -0.268711         0.526834
 H        -4.195186         2.432446        -0.353351
 H        -2.802618         1.621176         2.173434
 H        -2.307971         4.080153         1.538521
 H        -0.855297         3.216028         2.171578
 H        -0.533966         4.555802        -0.021365
 H         0.100378         2.957954         0.058845
 H        -1.961406         1.499796        -1.929295
