19
Iteration:  3400charge 0 multiplicity 1
 O        -0.513202         0.228676         0.385490
 C        -1.782428         0.899199         0.101053
 C        -3.162944         0.312086        -0.132110
 C        -3.362723         1.809724        -0.029903
 C        -2.484687         1.911524         1.289480
 C        -1.838380         3.221222         1.386085
 C        -0.732970         3.424953         0.332442
 O        -1.380770         3.167685        -0.930964
 C        -2.058290         1.976574        -0.897037
 H        -0.749335        -0.461403         0.968422
 H        -3.298541        -0.066656        -1.195449
 H        -3.573439        -0.400605         0.645151
 H        -4.349203         2.336327        -0.204778
 H        -2.952399         1.329884         2.081390
 H        -2.545860         4.000415         1.194019
 H        -1.256874         3.347661         2.356815
 H        -0.330615         4.393669         0.506957
 H        -0.018218         2.589173         0.444119
 H        -2.144513         1.662363        -1.966529
