19
Iteration:  2028charge 0 multiplicity 1
 O        -0.568192         0.064525         0.297776
 C        -1.739470         0.851973         0.185651
 C        -3.306220         0.275454         0.016485
 C        -3.410809         1.851025        -0.077442
 C        -2.398602         1.890830         1.271979
 C        -1.727426         3.277666         1.524596
 C        -0.924393         3.776745         0.214680
 O        -1.201023         3.059357        -1.002533
 C        -2.029366         1.906118        -0.918656
 H        -0.670028        -0.413097         1.080840
 H        -3.567186        -0.352375        -0.842257
 H        -3.736208        -0.222845         0.899618
 H        -4.295641         2.438625        -0.272393
 H        -3.083907         1.361883         1.932724
 H        -2.498780         4.098277         1.742276
 H        -1.058993         3.168380         2.351548
 H        -1.085199         4.885982         0.027671
 H         0.166188         3.504439         0.433326
 H        -2.012755         1.315419        -1.988284
