19
Iteration:  1985
 O        -0.598299         0.058165         0.279288
 C        -1.769730         0.815283         0.298604
 C        -3.208654         0.326181        -0.059779
 C        -3.333432         1.825920        -0.014106
 C        -2.435965         1.887120         1.305049
 C        -1.813689         3.331621         1.471475
 C        -0.859094         3.667209         0.187027
 O        -1.274191         3.116077        -1.054285
 C        -1.985256         1.912373        -0.890988
 H        -0.768312        -0.692356         0.823120
 H        -3.451637        -0.196300        -1.017444
 H        -3.580830        -0.023174         0.935336
 H        -4.273479         2.323584         0.071548
 H        -2.880467         1.471870         2.279797
 H        -2.746706         4.008509         1.433976
 H        -1.173922         3.442414         2.358937
 H        -0.930164         4.825128         0.151829
 H         0.072522         3.113742         0.487156
 H        -2.024837         1.475750        -1.997381
