19
Iteration:  2990
 O        -0.614966         0.192158         0.364998
 C        -1.767030         0.905029         0.191021
 C        -3.147151         0.272967        -0.117495
 C        -3.424766         1.824483        -0.104933
 C        -2.445658         1.940310         1.169962
 C        -1.640931         3.236356         1.505439
 C        -0.783674         3.570746         0.317957
 O        -1.381227         3.040696        -0.909018
 C        -2.156151         1.923843        -0.979501
 H        -0.267495         0.394371         1.282038
 H        -3.322479        -0.179408        -1.118592
 H        -3.709651        -0.141992         0.686328
 H        -4.524448         2.017894        -0.258925
 H        -2.706650         1.297903         2.085830
 H        -2.306174         4.080627         1.980057
 H        -0.972076         3.071946         2.411416
 H        -0.638405         4.734291         0.280536
 H         0.225734         3.057783         0.278671
 H        -2.054731         1.581352        -2.015279
