19
Iteration:  1883
 O        -0.573411         0.316989         0.431758
 C        -1.795855         0.898517         0.186341
 C        -3.286171         0.212022        -0.087437
 C        -3.406975         1.852286         0.002344
 C        -2.432796         1.885911         1.149062
 C        -1.656890         3.216885         1.443584
 C        -0.735732         3.483805         0.244600
 O        -1.395876         3.086579        -1.007257
 C        -2.052465         1.941366        -0.940940
 H        -0.661042        -0.010855         1.396537
 H        -3.445870        -0.348957        -0.973840
 H        -3.600818        -0.348276         0.759037
 H        -4.238397         2.625690         0.014826
 H        -2.833235         1.485270         2.082683
 H        -2.444575         3.940384         1.728974
 H        -1.072382         3.094648         2.302158
 H        -0.532195         4.505694         0.126254
 H         0.246924         3.033604         0.501078
 H        -2.103710         1.407695        -2.005948
