19
Iteration:  1978
 O        -0.595646         0.096019         0.326859
 C        -1.787137         0.780547         0.238713
 C        -3.176030         0.360193        -0.057256
 C        -3.287843         1.849569         0.037473
 C        -2.451866         1.904720         1.295325
 C        -1.805574         3.302568         1.383316
 C        -0.886355         3.609976         0.235009
 O        -1.330420         3.099668        -1.047521
 C        -1.955323         1.961951        -0.894753
 H        -0.665964        -0.767465         0.856446
 H        -3.495164        -0.257431        -0.958005
 H        -3.669272        -0.190926         0.791562
 H        -4.365957         2.211557         0.040124
 H        -2.892282         1.370366         2.165451
 H        -2.460499         4.157670         1.376826
 H        -1.343199         3.366338         2.445802
 H        -0.645263         4.693410         0.168141
 H         0.111503         3.186659         0.305823
 H        -2.144909         1.593115        -1.819308
