19
Iteration:  4280charge 0 multiplicity 1
 O        -0.486138         0.105016         0.400982
 C        -1.731030         0.957707         0.189716
 C        -3.288102         0.321784        -0.182721
 C        -3.370166         1.822834        -0.058313
 C        -2.441842         1.798452         1.190219
 C        -1.851672         3.135127         1.445007
 C        -0.830636         3.523801         0.322398
 O        -1.262636         3.194797        -0.947022
 C        -2.104022         2.008349        -0.914692
 H        -0.160162         0.296757         1.358746
 H        -3.199185        -0.102972        -1.218466
 H        -3.727765        -0.294635         0.623902
 H        -4.351373         2.328157        -0.183339
 H        -2.973629         1.403120         2.171830
 H        -2.546664         3.993002         1.441008
 H        -1.486975         3.348914         2.465428
 H        -0.580035         4.617805         0.362525
 H         0.033316         2.859736         0.435469
 H        -2.207104         1.661313        -1.922176
