19
Iteration:  3847
 O        -0.712463        -0.132054         0.351832
 C        -1.713965         0.877559         0.281257
 C        -3.199891         0.312882        -0.128234
 C        -3.287812         1.759418        -0.149145
 C        -2.441803         1.986370         1.185374
 C        -1.692659         3.262954         1.524013
 C        -0.910578         3.746650         0.229574
 O        -1.380543         3.189253        -0.916867
 C        -1.960529         1.893807        -0.893330
 H         0.080828         0.299640         0.862325
 H        -3.238364        -0.298697        -1.045211
 H        -3.709316        -0.134738         0.711490
 H        -4.092865         2.435791        -0.259960
 H        -3.103681         1.616525         2.054381
 H        -2.419025         4.091860         1.624666
 H        -1.096570         3.023243         2.410969
 H        -1.236153         4.820125         0.132762
 H         0.123215         3.521072         0.525760
 H        -1.931896         1.351225        -1.870625
