19
Iteration:  2808charge 0 multiplicity 1
 O        -0.546724         0.240523         0.519801
 C        -1.724029         0.901932         0.207257
 C        -3.230345         0.320314        -0.124789
 C        -3.353285         1.788286        -0.060264
 C        -2.410637         1.858127         1.167754
 C        -1.722744         3.209793         1.505351
 C        -0.830249         3.490089         0.266666
 O        -1.385734         3.161278        -0.967920
 C        -2.109507         1.994016        -0.989658
 H        -0.600425        -0.654391         0.256627
 H        -3.184698         0.164572        -1.228316
 H        -3.913084        -0.373248         0.508783
 H        -4.374429         2.260950        -0.155170
 H        -2.853788         1.451185         2.025363
 H        -2.600839         3.825094         1.721547
 H        -1.115757         3.093100         2.443067
 H        -0.289820         4.417498         0.124388
 H         0.071557         2.808581         0.516635
 H        -2.242842         1.564456        -2.002385
