19
Iteration:   391
 O        -0.707031        -0.012490         0.347137
 C        -1.794582         0.894383         0.268037
 C        -3.138039         0.272414         0.032990
 C        -3.415933         1.832850         0.015039
 C        -2.414575         1.918165         1.176298
 C        -1.816912         3.427981         1.328299
 C        -0.722961         3.592869         0.269259
 O        -1.260748         3.040063        -1.037393
 C        -2.071458         1.947227        -0.880381
 H        -0.018177         0.296272         0.943171
 H        -3.391218        -0.355460        -0.788339
 H        -3.554291        -0.136829         0.955347
 H        -4.329468         2.391221        -0.068135
 H        -2.642135         1.617379         2.150320
 H        -2.602500         4.094226         1.020003
 H        -1.504828         3.663122         2.283891
 H        -0.464063         4.667691         0.004239
 H         0.094391         2.897622         0.660558
 H        -2.206669         1.509961        -1.933763
