19
Iteration:  2730
 O        -0.516545         0.178720         0.428380
 C        -1.787837         0.900129         0.206410
 C        -3.181467         0.333199        -0.143169
 C        -3.308374         1.869930        -0.028502
 C        -2.425038         1.858829         1.228658
 C        -1.804282         3.207140         1.410606
 C        -0.806932         3.519689         0.316191
 O        -1.319323         3.156302        -0.954688
 C        -2.136606         1.922997        -0.964687
 H        -0.769807        -0.770315         0.417367
 H        -3.501201        -0.172408        -1.109607
 H        -3.584971        -0.273718         0.707634
 H        -4.236675         2.535988        -0.109752
 H        -2.884323         1.402214         2.070345
 H        -2.570878         3.944813         1.592249
 H        -1.219849         3.223244         2.400774
 H        -0.797636         4.608975         0.280565
 H         0.147821         3.030087         0.536751
 H        -2.388793         1.500780        -1.968480
