19
Iteration:   744charge 0 multiplicity 1
 O        -0.568362         0.206629         0.330411
 C        -1.848635         0.900453         0.256701
 C        -3.297020         0.307953         0.058224
 C        -3.377036         1.837082        -0.050151
 C        -2.548871         1.990765         1.235282
 C        -1.717310         3.274914         1.413433
 C        -0.746984         3.476849         0.242355
 O        -1.261228         3.006384        -0.968388
 C        -2.050604         1.823168        -0.914475
 H         0.072972         0.799259        -0.010990
 H        -3.359096        -0.307237        -0.873457
 H        -3.779410        -0.148585         0.949154
 H        -4.246413         2.440673        -0.398635
 H        -3.076928         1.603561         2.163632
 H        -2.537868         4.148791         1.559502
 H        -0.990410         3.413911         2.275365
 H        -0.507535         4.562479        -0.101998
 H         0.212021         3.033278         0.497727
 H        -2.073598         1.428914        -2.042106
