19
Iteration:  1045charge 0 multiplicity 1
 O        -0.611338         0.190259         0.578994
 C        -1.775303         0.819416         0.213338
 C        -3.313143         0.388504        -0.013146
 C        -3.341861         1.951055        -0.162931
 C        -2.392144         1.853594         1.152448
 C        -1.521865         2.999067         1.411511
 C        -0.895709         3.597514         0.193897
 O        -1.409398         3.137405        -1.004435
 C        -2.067359         1.919942        -0.966514
 H        -0.303544         0.576108         1.367395
 H        -3.447820        -0.158447        -0.982640
 H        -3.647170        -0.273059         0.768135
 H        -4.239414         2.545317        -0.190402
 H        -2.965841         1.461184         2.004385
 H        -2.238824         3.696047         1.903785
 H        -0.757920         2.798929         2.189527
 H        -1.079940         4.713689         0.244175
 H         0.200571         3.431847         0.226920
 H        -2.097735         1.341747        -1.968208
