19
Iteration:  2820charge 0 multiplicity 1
 O        -0.568478         0.287606         0.501540
 C        -1.812908         0.890738         0.182227
 C        -3.106973         0.307591        -0.204088
 C        -3.395334         1.882257        -0.011292
 C        -2.447280         1.855497         1.222456
 C        -1.763573         3.171903         1.442249
 C        -0.762607         3.458158         0.323744
 O        -1.362077         3.127579        -1.009793
 C        -2.123250         1.957228        -0.902557
 H        -0.493918        -0.613709         0.005002
 H        -3.252847        -0.293373        -1.106314
 H        -3.580067        -0.264923         0.686510
 H        -4.299092         2.465905        -0.059575
 H        -2.762079         1.338883         2.066096
 H        -2.437597         4.070532         1.494244
 H        -1.217069         3.176040         2.387372
 H        -0.632510         4.484024         0.286829
 H         0.154275         2.831102         0.399143
 H        -2.242499         1.617814        -1.952565
