19
Iteration:  3630charge 0 multiplicity 1
 O        -0.512684         0.226086         0.397993
 C        -1.803255         0.921027         0.268314
 C        -3.247802         0.269930        -0.180521
 C        -3.418539         1.811395        -0.137510
 C        -2.531394         1.878602         1.162214
 C        -1.710168         3.180092         1.458441
 C        -0.795043         3.549162         0.317599
 O        -1.354762         3.210529        -0.907979
 C        -1.992432         1.885309        -0.899317
 H        -0.708127        -0.532296         0.911533
 H        -3.423434        -0.336508        -1.103519
 H        -3.702876        -0.373679         0.546326
 H        -4.247995         2.432022        -0.318795
 H        -2.979898         1.447857         2.085753
 H        -2.269761         3.981081         1.861605
 H        -1.054390         2.851338         2.299866
 H        -0.657902         4.607357         0.131409
 H         0.235415         3.154428         0.515695
 H        -1.922954         1.572446        -1.938727
