19
Iteration:  4538charge 0 multiplicity 1
 O        -0.574345         0.106313         0.336260
 C        -1.793226         0.855376         0.184835
 C        -3.171834         0.241891        -0.158556
 C        -3.285366         1.864062        -0.289269
 C        -2.585502         1.878766         1.080523
 C        -1.750856         3.098009         1.555839
 C        -0.813206         3.603914         0.425957
 O        -1.426781         3.260674        -0.744429
 C        -1.972750         1.949336        -0.945910
 H         0.092509         0.682622         0.660040
 H        -3.039234        -0.303093        -1.085015
 H        -3.607575        -0.371352         0.665715
 H        -4.204903         2.352224        -0.684608
 H        -3.197384         1.555216         2.019026
 H        -2.375886         3.963806         1.878715
 H        -1.253760         2.744945         2.495080
 H        -0.798098         4.699224         0.403083
 H         0.179592         3.188339         0.582911
 H        -1.905376         1.446926        -1.941747
