19
Iteration:  4437charge 0 multiplicity 1
 O        -0.553610         0.177865         0.237085
 C        -1.751220         0.870778         0.146323
 C        -3.035091         0.295777        -0.099977
 C        -3.319256         1.853414        -0.175561
 C        -2.670349         1.973659         1.164921
 C        -1.888857         3.156217         1.576984
 C        -0.779530         3.528790         0.440275
 O        -1.367799         3.108986        -0.826025
 C        -1.997851         1.918922        -1.007448
 H        -0.030760         0.453047         0.929211
 H        -3.249625        -0.243639        -1.032171
 H        -3.613486        -0.087013         0.754200
 H        -4.198515         2.390801        -0.566024
 H        -3.303411         1.521027         2.086190
 H        -2.470230         4.026762         1.929582
 H        -1.185974         2.869520         2.437106
 H        -0.389923         4.563129         0.397841
 H         0.052149         2.857391         0.741292
 H        -2.158591         1.614338        -2.103644
