19
Iteration:  2251charge 0 multiplicity 1
 O        -0.568540         0.097723         0.530584
 C        -1.739221         0.838588         0.195099
 C        -3.161050         0.289847        -0.103238
 C        -3.408894         1.859106        -0.090297
 C        -2.344535         1.897266         1.122214
 C        -1.668773         3.221711         1.431016
 C        -0.798035         3.540445         0.308452
 O        -1.467181         3.207444        -1.014389
 C        -2.149046         1.970651        -0.927138
 H        -0.734492        -0.515974         1.211989
 H        -3.363698        -0.180547        -0.999765
 H        -3.659055        -0.425823         0.471692
 H        -4.258285         2.601185        -0.179683
 H        -2.747011         1.498694         2.023544
 H        -2.392996         4.007124         1.636693
 H        -1.162385         3.090402         2.411192
 H        -0.552159         4.591467         0.273087
 H         0.175795         3.093148         0.313612
 H        -2.096279         1.675963        -1.953891
