19
Iteration:  5000charge 0 multiplicity 1
 O        -0.560028         0.120586         0.352917
 C        -1.758238         0.955006         0.038793
 C        -3.052380         0.359240        -0.384296
 C        -3.286096         1.809574        -0.184261
 C        -2.497329         1.681508         1.169205
 C        -2.008500         3.078143         1.602940
 C        -0.938147         3.507614         0.617271
 O        -1.239996         3.277144        -0.828698
 C        -2.001928         2.090658        -0.969424
 H        -0.323903         0.348557         1.276731
 H        -3.184293         0.012192        -1.423792
 H        -3.475804        -0.346682         0.344418
 H        -4.170342         2.400210        -0.267614
 H        -3.042463         1.239937         1.996811
 H        -2.929069         3.703696         1.747720
 H        -1.553005         3.062380         2.610943
 H        -0.640489         4.527030         0.653603
 H        -0.035136         2.930606         0.735889
 H        -1.923496         1.707472        -2.046906
