19
Iteration:  1756charge 0 multiplicity 1
 O        -0.528901         0.383813         0.542418
 C        -1.788549         0.853404         0.239938
 C        -3.265739         0.303784        -0.104727
 C        -3.362051         1.812518        -0.100708
 C        -2.481263         1.920774         1.218126
 C        -1.638101         3.146096         1.425625
 C        -0.750834         3.399484         0.245743
 O        -1.394590         3.141114        -1.019472
 C        -2.145884         1.916233        -0.877433
 H        -0.283437        -0.073711        -0.333816
 H        -3.397982        -0.019184        -1.202321
 H        -3.833409        -0.293714         0.710687
 H        -4.209631         2.345693        -0.426915
 H        -2.982987         1.644998         2.179997
 H        -2.265311         3.977353         1.654937
 H        -1.108585         2.883601         2.426011
 H        -0.407275         4.506010         0.136128
 H         0.097990         2.716628         0.411687
 H        -2.240647         1.421221        -1.771311
