19
Iteration:  3674
 O        -0.666404        -0.017956         0.532623
 C        -1.722763         0.916510         0.176816
 C        -3.120490         0.316937        -0.101800
 C        -3.330463         1.813663        -0.102458
 C        -2.384822         1.823268         1.177381
 C        -1.808590         3.199918         1.454297
 C        -0.853792         3.732050         0.312603
 O        -1.366792         3.222764        -1.018426
 C        -2.039412         1.991974        -0.932714
 H        -0.660952        -0.692600        -0.125004
 H        -3.281781        -0.184911        -1.085553
 H        -3.650855        -0.244014         0.634125
 H        -4.192560         2.408538        -0.088691
 H        -2.857039         1.396623         2.090373
 H        -2.612885         3.844294         1.821082
 H        -1.236383         3.011442         2.394472
 H        -0.578417         4.786425         0.389040
 H         0.110059         3.165162         0.460640
 H        -1.979713         1.432083        -1.822484
