19
Iteration:  1219
 O        -0.655175         0.143182         0.647902
 C        -1.798395         0.905914         0.183510
 C        -3.221146         0.267217        -0.122606
 C        -3.345716         1.826787        -0.082376
 C        -2.485116         1.938379         1.223857
 C        -1.525010         3.103238         1.445413
 C        -0.861276         3.644962         0.191346
 O        -1.393971         3.196058        -1.036900
 C        -2.042464         1.921804        -0.934049
 H        -0.428251        -0.725280         0.187496
 H        -3.438202        -0.089519        -1.132701
 H        -3.579678        -0.345187         0.683134
 H        -4.310813         2.279418        -0.336035
 H        -2.935937         1.609496         2.192778
 H        -2.146135         3.922968         1.879499
 H        -0.787758         2.766363         2.115405
 H        -0.837901         4.765503         0.247948
 H         0.185284         3.261175         0.237768
 H        -2.184055         1.560827        -2.002180
