19
Iteration:  1747
 O        -0.521853         0.410172         0.509108
 C        -1.764008         0.944659         0.275980
 C        -3.328485         0.279870        -0.090840
 C        -3.420939         1.786999        -0.100048
 C        -2.530969         1.913045         1.185361
 C        -1.647513         3.141728         1.421351
 C        -0.731970         3.348427         0.254264
 O        -1.389986         3.183206        -1.014239
 C        -2.077882         1.907077        -0.887976
 H        -0.161399        -0.317145        -0.075049
 H        -3.397855        -0.390231        -0.988512
 H        -3.867992        -0.281909         0.748463
 H        -4.362419         2.367099        -0.280575
 H        -2.949948         1.463084         2.098340
 H        -2.198151         3.981885         1.678444
 H        -0.874590         2.883253         2.288955
 H        -0.302303         4.463526         0.248192
 H         0.161652         2.690664         0.281898
 H        -2.036930         1.525403        -1.906752
