19
Iteration:  4001
 O        -0.589658         0.250360         0.496344
 C        -1.753979         0.862606         0.270930
 C        -3.065203         0.313411        -0.205262
 C        -3.419472         1.786017        -0.049344
 C        -2.478965         1.838655         1.263455
 C        -1.839720         3.199273         1.456525
 C        -0.706849         3.455249         0.267003
 O        -1.350933         3.206259        -1.001244
 C        -2.128390         2.022540        -0.944954
 H        -0.615918        -0.629102         0.186264
 H        -3.068220        -0.139347        -1.273987
 H        -3.711636        -0.349644         0.356006
 H        -4.349745         2.356926        -0.156742
 H        -2.899753         1.356066         2.210629
 H        -2.482226         4.077370         1.585732
 H        -1.280941         3.233957         2.361039
 H        -0.167335         4.481015         0.321808
 H         0.103881         2.620222         0.490433
 H        -2.362739         1.690733        -1.994559
