19
Iteration:  4356charge 0 multiplicity 1
 O        -0.643277         0.118196         0.445676
 C        -1.753750         0.919582         0.206240
 C        -3.104729         0.224702        -0.129768
 C        -3.294444         1.794580        -0.155171
 C        -2.496288         1.861634         1.144835
 C        -1.828763         3.201570         1.566014
 C        -0.860195         3.469448         0.375587
 O        -1.400055         3.287405        -0.961956
 C        -1.963717         1.998298        -0.950897
 H        -0.119970         0.060630        -0.321830
 H        -3.322445        -0.333552        -1.089080
 H        -3.596637        -0.147753         0.790192
 H        -4.112517         2.529390        -0.358657
 H        -3.023243         1.390563         2.052465
 H        -2.480633         4.091867         1.838956
 H        -1.135141         3.087533         2.423260
 H        -0.514463         4.523679         0.489619
 H        -0.016502         2.757283         0.421651
 H        -1.962911         1.642995        -1.961279
