19
Iteration:  4889
 O        -0.605916         0.168326         0.555415
 C        -1.742652         0.852802         0.097281
 C        -3.076378         0.368620        -0.505231
 C        -3.386346         1.723290        -0.165556
 C        -2.512327         1.713381         1.106742
 C        -1.879953         3.076764         1.520207
 C        -0.780268         3.599896         0.517771
 O        -1.358225         3.303134        -0.771858
 C        -1.958940         2.070729        -0.858948
 H        -0.221928         0.018279        -0.325457
 H        -3.233462         0.059271        -1.547616
 H        -3.646974        -0.365698         0.068958
 H        -4.327854         2.268679        -0.218865
 H        -2.795215         1.021405         1.937876
 H        -2.682984         3.850979         1.519376
 H        -1.570866         3.014474         2.596450
 H        -0.700148         4.651863         0.810525
 H         0.181240         3.138058         0.697567
 H        -2.126517         1.666485        -1.906962
