19
Iteration:  4309charge 0 multiplicity 1
 O        -0.620846         0.185748         0.356452
 C        -1.816747         0.920924         0.138213
 C        -3.182291         0.194210        -0.189159
 C        -3.396619         1.851349        -0.077834
 C        -2.476347         1.856816         1.236667
 C        -1.765952         3.201372         1.539618
 C        -0.837597         3.562532         0.359395
 O        -1.251585         3.160072        -0.938006
 C        -2.069732         1.917445        -0.946104
 H        -0.054386         0.794211         0.974980
 H        -3.020783        -0.152952        -1.201016
 H        -3.489269        -0.573237         0.552819
 H        -4.378466         2.297883        -0.343180
 H        -2.896034         1.468283         2.103935
 H        -2.450271         4.068043         1.702665
 H        -1.212820         3.227069         2.477589
 H        -0.520761         4.613296         0.341941
 H        -0.011085         2.838097         0.643275
 H        -2.063001         1.555750        -1.978726
