19
Iteration:  4681charge 0 multiplicity 1
 O        -0.537214         0.217885         0.445608
 C        -1.770825         0.858865         0.130292
 C        -3.148656         0.337820        -0.424001
 C        -3.368383         1.849278        -0.083267
 C        -2.476754         1.758859         1.153680
 C        -1.796670         3.056230         1.522898
 C        -0.914521         3.600804         0.453642
 O        -1.283327         3.227616        -0.790957
 C        -2.016452         1.994492        -0.932016
 H        -0.795955        -0.620899         0.744596
 H        -3.109761        -0.043344        -1.433616
 H        -3.689626        -0.368523         0.175302
 H        -4.282075         2.349316        -0.344041
 H        -2.741024         1.063729         2.010175
 H        -2.631237         3.763294         1.367025
 H        -1.583433         3.235393         2.574919
 H        -0.845341         4.705915         0.548342
 H         0.019199         3.204763         0.738167
 H        -1.893170         1.840094        -2.001231
