19
Iteration:  2801charge 0 multiplicity 1
 O        -0.528049         0.205523         0.532402
 C        -1.647787         0.863368         0.201455
 C        -3.292274         0.282777        -0.118473
 C        -3.375838         1.823662        -0.112823
 C        -2.395923         1.872033         1.182454
 C        -1.731608         3.212801         1.521052
 C        -0.822808         3.521121         0.280305
 O        -1.409184         3.218095        -0.948212
 C        -2.089852         1.957056        -1.014605
 H        -0.759060        -0.762140         0.323552
 H        -3.478216        -0.018185        -1.157685
 H        -3.815642        -0.438744         0.493137
 H        -4.301716         2.237881        -0.309912
 H        -2.895859         1.504925         2.128968
 H        -2.436890         4.054093         1.884326
 H        -1.026255         3.162220         2.311663
 H        -0.349333         4.480518         0.188803
 H        -0.093612         2.758093         0.288592
 H        -2.166145         1.587195        -2.061096
