19
Iteration:  3512charge 0 multiplicity 1
 O        -0.557659         0.073042         0.484971
 C        -1.793125         0.828731         0.146830
 C        -3.194474         0.358496        -0.169021
 C        -3.328700         1.896272        -0.125265
 C        -2.357182         1.794768         1.216576
 C        -1.768564         3.134977         1.461435
 C        -0.969319         3.665101         0.319240
 O        -1.279882         3.196433        -0.968902
 C        -2.030654         1.997099        -0.889684
 H        -0.823713        -0.891262         0.661431
 H        -3.349483        -0.156460        -1.155234
 H        -3.784821        -0.135583         0.576888
 H        -4.240876         2.355977        -0.190984
 H        -2.808518         1.417528         2.126041
 H        -2.618335         3.803676         1.630658
 H        -1.122962         3.256431         2.402878
 H        -0.977442         4.748121         0.453715
 H         0.068698         3.354191         0.360230
 H        -2.223793         1.560477        -1.941193
