19
Iteration:  4793
 O        -0.493381         0.245330         0.363425
 C        -1.700314         0.906656         0.053181
 C        -3.104867         0.352742        -0.409164
 C        -3.463931         1.783295        -0.038591
 C        -2.589310         1.715354         1.134315
 C        -1.943290         3.134688         1.570413
 C        -0.872923         3.437819         0.591386
 O        -1.187645         3.219893        -0.866421
 C        -2.003088         2.128945        -0.943480
 H        -0.714315        -0.459036         1.092033
 H        -3.204162        -0.131434        -1.378817
 H        -3.300154        -0.383898         0.377095
 H        -4.324452         2.389362        -0.361757
 H        -2.926128         1.189037         2.082095
 H        -2.656945         3.972250         1.447250
 H        -1.615077         3.046553         2.621505
 H        -0.838432         4.553810         0.599036
 H         0.141497         2.912139         0.728565
 H        -2.118820         1.690341        -1.955493
