19
Iteration:  1236
 O        -0.657983         0.064303         0.586270
 C        -1.773875         0.861940         0.328007
 C        -3.087110         0.277813        -0.139530
 C        -3.475210         1.782053        -0.134045
 C        -2.448418         1.957513         1.170901
 C        -1.568158         3.229704         1.516233
 C        -0.745709         3.647005         0.182984
 O        -1.457084         3.193622        -1.015461
 C        -2.106792         1.980752        -0.952363
 H        -1.002191        -0.841494         0.235885
 H        -3.014438        -0.314005        -1.085832
 H        -3.765910        -0.339164         0.515268
 H        -4.432984         2.289301        -0.264063
 H        -2.965654         1.458552         2.024960
 H        -2.021355         4.142379         1.879361
 H        -0.758928         2.824846         2.283283
 H        -0.610368         4.717515         0.008500
 H         0.342432         3.323204         0.249182
 H        -2.067651         1.504423        -1.934889
