19
Iteration:   369charge 0 multiplicity 1
 O        -0.565459        -0.001716         0.396258
 C        -1.784744         0.817861         0.253620
 C        -3.232055         0.346245        -0.014414
 C        -3.306137         1.849710         0.026273
 C        -2.447718         2.016680         1.264764
 C        -1.754731         3.382856         1.347961
 C        -0.779598         3.512240         0.142801
 O        -1.395608         3.150321        -0.990900
 C        -2.023201         1.837390        -0.897700
 H        -0.644540        -0.261339         1.361597
 H        -3.306076        -0.030516        -1.006251
 H        -3.799629        -0.314779         0.652929
 H        -4.199059         2.410506        -0.237565
 H        -3.005351         1.761653         2.116582
 H        -2.530772         4.098544         1.136577
 H        -1.293943         3.615881         2.241604
 H        -0.523373         4.621062         0.097800
 H         0.081194         2.790189         0.359666
 H        -2.055389         1.497404        -1.985771
