19
Iteration:   993
 O        -0.735546         0.010796         0.374628
 C        -1.763737         0.853166         0.270405
 C        -3.161385         0.318158        -0.105090
 C        -3.328822         1.830746        -0.057806
 C        -2.488412         1.994024         1.236288
 C        -1.630853         3.255070         1.420040
 C        -0.865062         3.709793         0.182001
 O        -1.293051         3.050928        -0.966501
 C        -2.066692         1.865969        -0.872323
 H         0.005627         0.257835         0.890694
 H        -3.351527        -0.259084        -1.064405
 H        -3.773170        -0.143363         0.711033
 H        -4.175230         2.449351        -0.145044
 H        -2.673698         1.373976         2.127606
 H        -2.273846         4.088384         1.857415
 H        -0.979125         3.050747         2.410495
 H        -1.239406         4.804243         0.053344
 H         0.309262         3.660572         0.306639
 H        -2.330585         1.523053        -1.861274
