19
Iteration:  2161
 O        -0.579980         0.266195         0.293004
 C        -1.798434         0.955151         0.233841
 C        -3.185689         0.336033         0.013539
 C        -3.443815         1.766351        -0.042994
 C        -2.436149         1.867425         1.255725
 C        -1.789452         3.219362         1.421504
 C        -0.735824         3.494672         0.326739
 O        -1.257240         3.063608        -1.036451
 C        -2.087043         1.932902        -0.913258
 H        -0.582926        -0.492761         0.803571
 H        -3.364142        -0.177257        -0.932818
 H        -3.717576        -0.208172         0.763676
 H        -4.440142         2.128229        -0.044959
 H        -2.938814         1.425755         2.146841
 H        -2.594893         4.005754         1.195959
 H        -1.499535         3.600358         2.376623
 H        -0.516576         4.602921         0.190270
 H         0.225868         2.987777         0.648844
 H        -2.047830         1.716759        -2.095898
