19
Iteration:   775
 O        -0.686046        -0.006800         0.346761
 C        -1.769236         0.909690         0.222937
 C        -3.189545         0.332797         0.047439
 C        -3.331396         1.826358         0.034441
 C        -2.431060         1.986907         1.280239
 C        -1.828471         3.379690         1.426684
 C        -0.794662         3.610573         0.269492
 O        -1.178687         2.989926        -1.028160
 C        -2.082760         1.890208        -0.924688
 H        -0.222265         0.257084        -0.528143
 H        -3.249287        -0.176624        -0.981534
 H        -3.740416        -0.353656         0.726013
 H        -4.282929         2.301023        -0.188821
 H        -3.035281         1.545370         2.183855
 H        -2.795709         3.977654         1.233309
 H        -1.309179         3.719999         2.292204
 H        -0.818121         4.748763        -0.045260
 H         0.188192         3.235117         0.623221
 H        -2.362025         1.496212        -1.979875
