19
Iteration:  3593charge 0 multiplicity 1
 O        -0.529356         0.333936         0.379699
 C        -1.775051         0.968201         0.155952
 C        -3.208613         0.237407        -0.168663
 C        -3.460878         1.840468        -0.095291
 C        -2.460760         1.841453         1.198295
 C        -1.816511         3.196092         1.485632
 C        -0.781524         3.355739         0.357931
 O        -1.265546         3.078216        -0.917992
 C        -2.115180         2.016254        -0.977874
 H        -0.221709         0.350263         1.309346
 H        -3.137784        -0.191104        -1.112395
 H        -3.581204        -0.295623         0.716743
 H        -4.284834         2.694091        -0.009384
 H        -2.736025         1.240157         2.084509
 H        -2.607455         4.086377         1.456018
 H        -1.256249         3.143666         2.436936
 H        -0.385371         4.392356         0.418449
 H         0.027841         2.570192         0.548540
 H        -2.272098         1.677462        -2.012219
