19
Iteration:  2658
 O        -0.602169         0.247232         0.323810
 C        -1.740230         0.944713         0.218574
 C        -3.154501         0.242007        -0.072297
 C        -3.359535         1.773213        -0.084941
 C        -2.490847         1.923020         1.250958
 C        -1.761161         3.237368         1.437990
 C        -0.731825         3.427320         0.395912
 O        -1.410387         3.197875        -1.015263
 C        -2.040164         1.958307        -0.937976
 H        -0.721040        -0.597654         0.691924
 H        -3.193570        -0.264846        -0.992669
 H        -3.672894        -0.300515         0.733909
 H        -4.266562         2.431187        -0.149945
 H        -3.147371         1.484094         2.092821
 H        -2.397784         4.156912         1.451370
 H        -1.347498         3.181045         2.394166
 H        -0.364552         4.446987         0.440043
 H         0.041935         2.618308         0.503596
 H        -1.985147         1.389413        -1.903183
