19
Iteration:  4160charge 0 multiplicity 1
 O        -0.615446         0.134952         0.377946
 C        -1.802677         0.912346         0.216328
 C        -3.148046         0.235077        -0.111749
 C        -3.402873         1.868171        -0.077918
 C        -2.568643         1.950810         1.172198
 C        -1.795657         3.187821         1.465673
 C        -0.835461         3.463079         0.356832
 O        -1.294990         3.189363        -0.994638
 C        -2.003247         1.931744        -0.897097
 H         0.089962         0.755819         0.298276
 H        -3.004761        -0.302114        -1.034639
 H        -3.431523        -0.249893         0.813893
 H        -4.341076         2.330909        -0.359074
 H        -3.011425         1.402172         2.048666
 H        -2.439477         4.040369         1.756921
 H        -1.090868         3.057715         2.331538
 H        -0.467565         4.514970         0.465629
 H         0.197402         2.932112         0.620962
 H        -1.859405         1.466662        -1.866477
