19
Iteration:    56charge 0 multiplicity 1
 O        -0.834048        -0.151803         0.451059
 C        -1.802598         0.836088         0.312408
 C        -3.242823         0.456322         0.099109
 C        -3.210638         2.009680        -0.049218
 C        -2.315556         2.015120         1.253149
 C        -1.581472         3.242735         1.453962
 C        -1.377438         3.888829         0.001242
 O        -0.977446         2.876666        -1.062557
 C        -1.943824         1.780301        -0.869281
 H        -0.040964         0.023126        -0.119349
 H        -3.371119        -0.218223        -0.787076
 H        -3.752266         0.125168         0.992785
 H        -4.117869         2.635028        -0.170853
 H        -2.869572         1.641218         2.148440
 H        -2.124270         3.941909         2.104364
 H        -0.600065         3.095819         1.934985
 H        -2.389497         4.240664        -0.318105
 H        -0.532732         4.625090         0.067693
 H        -2.111087         1.251001        -1.778413
