19
Iteration:    29
 O        -0.750023        -0.069940         0.443342
 C        -1.847510         0.767103         0.228774
 C        -3.387302         0.414784         0.023793
 C        -3.269192         1.941615         0.030679
 C        -2.253984         1.998001         1.168308
 C        -1.460335         3.297097         1.354331
 C        -1.407865         3.950202        -0.058765
 O        -0.933767         2.797873        -0.835621
 C        -1.990294         1.812588        -0.877419
 H        -0.153277         0.396195         1.078148
 H        -3.643026        -0.075631        -0.920160
 H        -4.009232         0.016100         0.903807
 H        -4.210781         2.566243         0.032227
 H        -2.717098         1.663353         2.158979
 H        -1.852892         3.933834         2.181798
 H        -0.392982         3.037542         1.598428
 H        -2.502676         4.183002        -0.388017
 H        -0.630528         4.692126        -0.136053
 H        -2.130357         1.467508        -1.962209
