19
Iteration:  1342
 O        -0.515364         0.326919         0.351630
 C        -1.825255         0.857936         0.170837
 C        -3.216398         0.257391         0.000232
 C        -3.358208         1.865579        -0.044694
 C        -2.558757         1.983948         1.206773
 C        -1.748779         3.243897         1.425679
 C        -0.696700         3.400812         0.258040
 O        -1.278277         3.074977        -0.965230
 C        -2.140699         1.924336        -0.925674
 H        -0.778013        -0.541662         0.814590
 H        -3.504954        -0.337805        -0.863956
 H        -3.592973        -0.114279         0.970800
 H        -4.371191         2.287401         0.012998
 H        -3.031880         1.485708         2.109238
 H        -2.414255         4.186664         1.457728
 H        -1.227535         3.176346         2.304017
 H        -0.382429         4.490357         0.020367
 H         0.062717         2.737378         0.609445
 H        -2.112877         1.527663        -2.014493
