19
Iteration:  3302
 O        -0.683372         0.117730         0.507564
 C        -1.755898         0.903187         0.223620
 C        -3.136952         0.258357        -0.206433
 C        -3.425139         1.868237        -0.049057
 C        -2.435928         1.824492         1.219159
 C        -1.574424         3.196878         1.562570
 C        -0.858448         3.643810         0.283724
 O        -1.377068         3.136593        -1.064431
 C        -2.117603         1.945156        -0.907783
 H         0.151903         0.227470         0.152591
 H        -3.159200        -0.086286        -1.220547
 H        -3.550944        -0.453789         0.469106
 H        -4.442464         2.429206        -0.272585
 H        -2.968216         1.581913         2.133581
 H        -2.386360         3.909459         1.736540
 H        -0.957421         2.884641         2.496253
 H        -0.783560         4.685457         0.050605
 H         0.268062         3.343887         0.489118
 H        -2.154829         1.452615        -1.926839
