19
Iteration:  4981charge 0 multiplicity 1
 O        -0.496915         0.179321         0.324797
 C        -1.718337         0.907704         0.116224
 C        -3.087291         0.348469        -0.456783
 C        -3.375200         1.847778        -0.148544
 C        -2.527066         1.732297         1.147170
 C        -1.991483         3.099555         1.524136
 C        -0.899911         3.437228         0.548936
 O        -1.320061         3.296151        -0.754909
 C        -1.926902         2.018734        -0.848984
 H        -0.399832        -0.096174         1.308696
 H        -3.052844         0.041046        -1.463808
 H        -3.659174        -0.416254        -0.007125
 H        -4.325498         2.445095        -0.183254
 H        -2.840905         1.040915         1.963851
 H        -2.674618         3.941492         1.382656
 H        -1.742109         3.155340         2.544969
 H        -0.590327         4.463080         0.477716
 H         0.053622         2.851769         0.849043
 H        -1.972984         1.997243        -1.873659
