19
Iteration:  4138charge 0 multiplicity 1
 O        -0.632051         0.086651         0.279630
 C        -1.730148         0.943412         0.256107
 C        -3.143306         0.307059        -0.058895
 C        -3.334588         1.784756        -0.238201
 C        -2.508710         1.947447         1.243299
 C        -1.801992         3.303870         1.549678
 C        -0.796855         3.501966         0.335249
 O        -1.367898         3.091253        -0.882806
 C        -2.091044         1.929808        -0.997158
 H         0.188954         0.358888         0.862184
 H        -2.997727        -0.182097        -1.006929
 H        -3.509847        -0.207995         0.819645
 H        -4.244436         2.317676        -0.476109
 H        -3.101503         1.360219         1.997285
 H        -2.414526         4.230583         1.619133
 H        -1.418520         3.139795         2.603608
 H        -0.521218         4.556903         0.426968
 H         0.314836         2.987414         0.471835
 H        -2.020830         1.694359        -2.049073
