19
Iteration:  3079charge 0 multiplicity 1
 O        -0.550547         0.142465         0.360114
 C        -1.743841         0.934752         0.248140
 C        -3.187797         0.254540        -0.009613
 C        -3.396321         1.853115        -0.127278
 C        -2.504930         1.875375         1.203529
 C        -1.712651         3.171676         1.465537
 C        -0.797184         3.582076         0.261423
 O        -1.360456         3.200933        -0.961941
 C        -2.055577         1.940685        -0.892536
 H        -0.848701        -0.756775         0.128840
 H        -3.294697        -0.374037        -0.853639
 H        -3.644999        -0.185214         0.874009
 H        -4.267918         2.381948        -0.387910
 H        -2.796003         1.414255         2.122124
 H        -2.394685         4.070602         1.353692
 H        -1.339109         3.134637         2.518944
 H        -0.642757         4.683122         0.290535
 H         0.112899         2.961237         0.366948
 H        -2.120125         1.563292        -1.870923
