19
Iteration:  4182charge 0 multiplicity 1
 O        -0.574409         0.213757         0.561933
 C        -1.758293         0.837986         0.172313
 C        -3.247807         0.288382        -0.192852
 C        -3.361216         1.798920        -0.084474
 C        -2.454256         1.819708         1.134621
 C        -1.773151         3.164866         1.469300
 C        -0.732713         3.540493         0.342240
 O        -1.347858         3.170921        -0.932540
 C        -2.094666         1.976167        -0.935333
 H         0.135764         0.462399        -0.128730
 H        -3.481370        -0.048043        -1.202720
 H        -3.856871        -0.045633         0.633892
 H        -4.327079         2.275478        -0.245812
 H        -2.925162         1.383539         2.062981
 H        -2.666345         3.809189         1.439956
 H        -1.287993         3.335755         2.448556
 H        -0.386138         4.549916         0.091036
 H         0.266799         3.058028         0.646605
 H        -2.245265         1.669983        -1.973186
