19
Iteration:  3740
 O        -0.591001         0.276896         0.375845
 C        -1.754952         0.924389         0.208548
 C        -3.196733         0.239599         0.021534
 C        -3.346830         1.829410        -0.198889
 C        -2.573571         1.917236         1.186822
 C        -1.795426         3.143222         1.492149
 C        -0.787378         3.459264         0.397641
 O        -1.299890         3.112376        -0.964711
 C        -2.083854         1.963645        -0.998398
 H         0.230763         0.443098        -0.193326
 H        -3.402425        -0.482871        -0.838093
 H        -3.607712        -0.186443         0.902105
 H        -4.218197         2.433309        -0.220407
 H        -3.154751         1.544374         2.070476
 H        -2.383517         4.155869         1.640329
 H        -1.193037         3.039364         2.446740
 H        -0.284660         4.438960         0.115836
 H         0.127619         2.842326         0.873010
 H        -1.995882         1.550980        -1.985589
