19
Iteration:  3422charge 0 multiplicity 1
 O        -0.568629         0.202549         0.402407
 C        -1.727817         0.850788         0.164886
 C        -3.243722         0.313221        -0.127040
 C        -3.389446         1.838937        -0.144695
 C        -2.420255         1.848853         1.185152
 C        -1.783771         3.215890         1.513558
 C        -0.752511         3.518683         0.330590
 O        -1.369641         3.154844        -0.931621
 C        -2.088290         1.971409        -0.979646
 H        -0.193052         0.073367         1.352235
 H        -3.188381        -0.339579        -1.058451
 H        -3.842046        -0.214405         0.671800
 H        -4.290477         2.449251         0.018827
 H        -2.791079         1.215423         2.010223
 H        -2.599687         3.893845         1.511963
 H        -1.172100         3.206516         2.483819
 H        -0.496669         4.546960         0.260353
 H         0.108856         2.898186         0.618582
 H        -2.249137         1.590038        -2.019895
