19
Iteration:  3702
 O        -0.589517         0.038669         0.530138
 C        -1.795277         0.873757         0.178116
 C        -3.188627         0.256578        -0.245808
 C        -3.300559         1.819326        -0.016982
 C        -2.426791         1.833094         1.289764
 C        -1.793980         3.287172         1.384646
 C        -0.809286         3.624019         0.276814
 O        -1.326288         3.149758        -0.917778
 C        -2.102939         2.007159        -0.919415
 H        -0.131907        -0.025845        -0.280306
 H        -3.369895         0.007023        -1.283223
 H        -3.829303        -0.477389         0.350402
 H        -4.210808         2.533610        -0.006865
 H        -2.933026         1.465007         2.175556
 H        -2.627999         4.002527         1.478932
 H        -1.283727         3.373000         2.336092
 H        -0.734634         4.727854         0.346545
 H         0.208515         3.222315         0.357338
 H        -2.018793         1.465720        -1.923875
