19
Iteration:  4488charge 0 multiplicity 1
 O        -0.559240         0.201635         0.487914
 C        -1.728890         0.870347         0.087414
 C        -3.113424         0.321009        -0.305028
 C        -3.338261         1.866787        -0.044416
 C        -2.452092         1.796809         1.154938
 C        -1.923998         3.136500         1.518463
 C        -0.829694         3.481795         0.381085
 O        -1.312195         3.193082        -0.896754
 C        -2.059045         2.069933        -0.889880
 H        -0.286451        -0.810321         0.297706
 H        -3.223737         0.105840        -1.394291
 H        -3.542265        -0.304358         0.499589
 H        -4.288558         2.363728        -0.051844
 H        -2.838921         1.180012         1.933688
 H        -2.699783         3.904281         1.390827
 H        -1.479378         3.396990         2.469558
 H        -0.669103         4.561084         0.485412
 H         0.036953         2.825629         0.635258
 H        -2.311652         1.678263        -1.847800
