19
Iteration:  3214
 O        -0.632049         0.129478         0.323547
 C        -1.773641         0.895926         0.251588
 C        -3.092620         0.229277        -0.103138
 C        -3.471595         1.835578         0.088355
 C        -2.424296         1.869698         1.274446
 C        -1.825668         3.241473         1.389031
 C        -0.684798         3.448694         0.309508
 O        -1.303870         3.154458        -1.012947
 C        -2.135171         2.082372        -0.930476
 H        -0.018922         0.396458         0.952157
 H        -3.206603        -0.134709        -1.087431
 H        -3.636490        -0.368599         0.590231
 H        -4.545841         2.011944        -0.286554
 H        -2.820569         1.419676         2.224170
 H        -2.506388         4.073287         1.150274
 H        -1.414615         3.366016         2.460981
 H        -0.577849         4.496421         0.150475
 H         0.292779         2.929584         0.221020
 H        -2.293038         1.756504        -1.993047
