19
Iteration:   722charge 0 multiplicity 1
 O        -0.604806         0.224022         0.553112
 C        -1.848987         0.916348         0.183705
 C        -3.239202         0.293321         0.026931
 C        -3.431530         1.893281        -0.100897
 C        -2.395996         1.941380         1.117338
 C        -1.690039         3.175912         1.381238
 C        -0.665971         3.416962         0.281923
 O        -1.376024         3.103936        -1.042063
 C        -2.127709         1.875765        -0.951261
 H        -0.032075         1.067578         0.588222
 H        -3.419312        -0.530725        -0.697574
 H        -3.602618         0.010031         1.037524
 H        -4.424357         2.382210        -0.087285
 H        -2.694143         1.453721         2.088774
 H        -2.470862         4.073656         1.513938
 H        -1.184014         3.098675         2.397852
 H        -0.298774         4.512573         0.128610
 H         0.215463         2.818221         0.344516
 H        -2.203518         1.434875        -2.058604
