19
Iteration:  4574charge 0 multiplicity 1
 O        -0.579873         0.262432         0.496420
 C        -1.774778         0.882360         0.129211
 C        -3.103286         0.264812        -0.282872
 C        -3.321820         1.876560        -0.130807
 C        -2.489187         1.768113         1.208781
 C        -1.871200         3.062722         1.549301
 C        -0.860430         3.497235         0.411929
 O        -1.300843         3.247396        -0.903183
 C        -2.056082         2.053414        -0.932090
 H        -0.491432        -0.542279         0.030793
 H        -3.020149        -0.034541        -1.353928
 H        -3.554425        -0.494339         0.374761
 H        -4.255703         2.394507        -0.263577
 H        -3.019550         1.156386         1.911377
 H        -2.677118         3.819121         1.729308
 H        -1.195384         3.026676         2.410546
 H        -0.629896         4.585334         0.459542
 H         0.129187         2.960893         0.514450
 H        -2.067201         1.846161        -2.034401
