19
Iteration:  4659
 O        -0.562708         0.196117         0.361105
 C        -1.749128         0.866508         0.141304
 C        -3.153443         0.249308        -0.281393
 C        -3.296326         1.797592        -0.204148
 C        -2.575265         1.837666         1.149983
 C        -1.935518         3.162277         1.595571
 C        -0.841043         3.604142         0.535846
 O        -1.260964         3.223395        -0.879584
 C        -1.967107         2.011134        -0.898909
 H        -0.518313        -0.416846        -0.492196
 H        -3.200405        -0.364479        -1.170133
 H        -3.606350        -0.316768         0.513189
 H        -4.255625         2.266840        -0.351071
 H        -3.054484         1.304108         2.022338
 H        -2.637042         3.939361         1.942180
 H        -1.350538         2.919699         2.500401
 H        -0.636356         4.641406         0.751218
 H         0.015655         3.046246         0.776613
 H        -1.954559         1.661416        -1.950847
