19
Iteration:  1160
 O        -0.636935         0.167895         0.341747
 C        -1.893263         0.861179         0.258529
 C        -3.179078         0.266869        -0.039611
 C        -3.427374         1.883700        -0.076829
 C        -2.492523         1.982672         1.275319
 C        -1.712904         3.212023         1.386071
 C        -0.791559         3.613987         0.274601
 O        -1.226152         3.016642        -0.974372
 C        -2.039130         1.873390        -0.874072
 H        -0.149252         0.499390        -0.383496
 H        -3.032970        -0.265494        -0.986968
 H        -3.762628        -0.253980         0.746342
 H        -4.479167         2.273280        -0.075519
 H        -2.802428         1.556851         2.234958
 H        -2.294278         4.094097         1.649877
 H        -1.179847         3.259359         2.468652
 H        -0.796593         4.679539         0.064139
 H         0.248472         3.111126         0.498014
 H        -2.109177         1.488185        -1.837586
