19
Iteration:   332charge 0 multiplicity 1
 O        -0.649013         0.259101         0.622124
 C        -1.805782         0.917725         0.250235
 C        -3.146419         0.279187         0.094613
 C        -3.419057         1.841990        -0.109892
 C        -2.509277         1.986193         1.140937
 C        -1.538774         3.141062         1.423957
 C        -0.784003         3.488834         0.186159
 O        -1.358401         3.108186        -1.052537
 C        -2.076458         1.931542        -1.036167
 H        -0.644238        -0.668691         0.182851
 H        -3.433000        -0.332011        -0.826523
 H        -3.669963        -0.194159         0.963814
 H        -4.527145         2.278210        -0.303490
 H        -3.029474         1.575159         2.100990
 H        -2.253599         3.972785         1.609846
 H        -0.861215         3.026103         2.338024
 H        -0.726154         4.525818        -0.005980
 H         0.222438         3.088927         0.184850
 H        -2.195818         1.547814        -2.047086
