19
Iteration:  3137
 O        -0.701654         0.106120         0.505725
 C        -1.770016         0.869499         0.201929
 C        -3.160912         0.281075        -0.124262
 C        -3.389992         1.759711        -0.012917
 C        -2.492172         1.887190         1.204991
 C        -1.632427         3.122204         1.426514
 C        -0.824900         3.660162         0.243479
 O        -1.335794         3.224437        -1.000134
 C        -2.056106         1.944955        -0.884553
 H        -0.009727         0.312255        -0.201165
 H        -3.301863        -0.083004        -1.110041
 H        -3.495147        -0.397004         0.652250
 H        -4.473732         2.172645         0.002416
 H        -2.983196         1.456728         2.174370
 H        -2.251583         4.031321         1.551983
 H        -1.038187         2.992991         2.408796
 H        -0.611645         4.717890         0.111646
 H         0.228809         3.356755         0.298404
 H        -2.147999         1.578073        -1.930777
