19
Iteration:  3165charge 0 multiplicity 1
 O        -0.586869         0.121348         0.378487
 C        -1.732310         0.888393         0.203822
 C        -3.192782         0.344505        -0.017182
 C        -3.354725         1.868870        -0.208248
 C        -2.474071         1.943984         1.222962
 C        -1.671364         3.189556         1.545091
 C        -0.850870         3.508588         0.334469
 O        -1.410725         3.155777        -0.952341
 C        -2.116956         1.855144        -0.949129
 H         0.166593         0.778742         0.106766
 H        -3.219659        -0.358611        -0.929322
 H        -3.608732        -0.164342         0.895026
 H        -4.285133         2.297917        -0.228257
 H        -3.082046         1.524370         1.990135
 H        -2.300669         4.115293         1.672514
 H        -1.064832         3.007356         2.396098
 H        -0.555066         4.528007         0.000435
 H         0.108353         2.898040         0.365302
 H        -2.082670         1.475320        -1.962561
