19
Iteration:  3489
 O        -0.629979         0.100522         0.561294
 C        -1.787433         0.865155         0.122517
 C        -3.259583         0.279465        -0.180377
 C        -3.318496         1.850664        -0.060208
 C        -2.437969         1.812319         1.145401
 C        -1.693746         3.152263         1.530070
 C        -0.899547         3.759208         0.319788
 O        -1.325620         3.179354        -0.955819
 C        -1.948107         1.910186        -0.952662
 H        -0.421158        -0.367249        -0.225610
 H        -3.340550        -0.186840        -1.207678
 H        -3.786575        -0.317544         0.546379
 H        -4.107527         2.518331        -0.133140
 H        -2.915877         1.389585         2.017632
 H        -2.439561         3.844807         1.847600
 H        -1.061682         2.898243         2.447862
 H        -1.054451         4.824472         0.247676
 H         0.167572         3.596235         0.331790
 H        -2.204950         1.498266        -1.943264
