19
Iteration:  2674
 O        -0.512635         0.204609         0.284306
 C        -1.795339         0.954646         0.236471
 C        -3.056210         0.297824        -0.075049
 C        -3.484173         1.833089        -0.107872
 C        -2.545095         1.989085         1.176013
 C        -1.803186         3.310089         1.517480
 C        -0.747347         3.415135         0.288097
 O        -1.344926         3.102417        -0.867723
 C        -2.081263         1.902958        -0.890505
 H        -0.812359        -0.665062         0.418490
 H        -3.132198        -0.145217        -1.136482
 H        -3.447937        -0.247045         0.796454
 H        -4.501139         2.059138        -0.434816
 H        -2.813261         1.420737         2.035655
 H        -2.560345         4.079928         1.536988
 H        -1.162189         3.178166         2.469083
 H        -0.173927         4.372527         0.097539
 H         0.115340         2.765519         0.448516
 H        -2.234220         1.572032        -1.926601
