19
Iteration:  3305charge 0 multiplicity 1
 O        -0.671768         0.123874         0.530383
 C        -1.765332         0.892480         0.189232
 C        -3.154770         0.272866        -0.213410
 C        -3.403632         1.894842        -0.055580
 C        -2.442509         1.834713         1.215171
 C        -1.608554         3.169501         1.554878
 C        -0.847664         3.623848         0.268368
 O        -1.378786         3.124385        -1.059574
 C        -2.112389         1.958746        -0.862871
 H         0.209429         0.268729         0.045667
 H        -3.201881        -0.019158        -1.263461
 H        -3.460745        -0.442648         0.488559
 H        -4.356676         2.307902        -0.124546
 H        -2.891278         1.547611         2.225426
 H        -2.461188         3.856108         1.699134
 H        -0.952680         2.948769         2.446952
 H        -0.837461         4.703679         0.026586
 H         0.270322         3.343654         0.391598
 H        -2.094884         1.474182        -1.909791
