19
Iteration:  2532charge 0 multiplicity 1
 O        -0.567209         0.134633         0.316175
 C        -1.779311         0.850524         0.190911
 C        -3.179782         0.299690        -0.061195
 C        -3.366497         1.869766         0.006575
 C        -2.498823         1.854155         1.283078
 C        -1.777676         3.235883         1.384750
 C        -0.804282         3.578029         0.324313
 O        -1.292817         3.151354        -1.003868
 C        -2.041636         1.961437        -0.924096
 H        -0.767689        -0.516161         0.972816
 H        -3.398291        -0.014926        -1.156336
 H        -3.495068        -0.491635         0.633648
 H        -4.295900         2.248255         0.058189
 H        -3.042115         1.433605         2.161048
 H        -2.646347         3.888586         1.381639
 H        -1.161624         3.407384         2.313620
 H        -0.685348         4.688184         0.199714
 H         0.182992         3.227970         0.607932
 H        -2.143580         1.489040        -1.923658
