19
Iteration:  1477charge 0 multiplicity 1
 O        -0.611533         0.237706         0.384887
 C        -1.828315         0.892980         0.125311
 C        -3.125923         0.272312        -0.024866
 C        -3.489331         1.852830        -0.012872
 C        -2.483289         1.944170         1.235006
 C        -1.739100         3.236369         1.483820
 C        -0.765948         3.581445         0.340028
 O        -1.178055         2.984947        -1.012446
 C        -2.122154         1.962426        -0.963487
 H        -0.852110        -0.681344         0.120132
 H        -3.307380        -0.384792        -0.921373
 H        -3.493588        -0.213979         0.911659
 H        -4.521840         2.327546        -0.080101
 H        -2.735646         1.483289         2.224386
 H        -2.456027         4.050206         1.369221
 H        -1.248749         3.304614         2.405156
 H        -0.799770         4.519714        -0.070487
 H         0.251528         3.257028         0.618207
 H        -2.143720         1.594596        -2.027750
