19
Iteration:  3471
 O        -0.662871         0.049394         0.471579
 C        -1.780716         0.826305         0.260965
 C        -3.132880         0.319718        -0.160397
 C        -3.389850         1.831043        -0.205226
 C        -2.465579         1.891092         1.213543
 C        -1.623220         3.170993         1.568636
 C        -0.927127         3.659489         0.314321
 O        -1.308961         3.161968        -0.953072
 C        -2.071050         1.992140        -0.964710
 H         0.026361         0.385479        -0.072961
 H        -3.279027        -0.162596        -1.086769
 H        -3.642933        -0.197253         0.653416
 H        -4.350313         2.260498        -0.617838
 H        -2.939949         1.464353         2.124648
 H        -2.367265         3.923789         2.025719
 H        -0.862646         2.794145         2.271911
 H        -1.086006         4.776289         0.140924
 H         0.154158         3.418221         0.572282
 H        -2.016796         1.389823        -1.924206
