19
Iteration:   395charge 0 multiplicity 1
 O        -0.725826         0.001918         0.350356
 C        -1.828475         0.907881         0.225168
 C        -3.130851         0.295957         0.067623
 C        -3.418114         1.823233         0.044108
 C        -2.406951         1.919947         1.158059
 C        -1.816500         3.419672         1.335899
 C        -0.752295         3.588718         0.240911
 O        -1.214204         3.033702        -1.019234
 C        -2.051221         1.929475        -0.897023
 H         0.062914         0.469989         0.787329
 H        -3.401662        -0.444529        -0.767892
 H        -3.501290        -0.188224         0.971053
 H        -4.366821         2.329969         0.018483
 H        -2.810452         1.528332         2.150500
 H        -2.698029         4.045442         1.037778
 H        -1.460219         3.657355         2.417767
 H        -0.444403         4.692044         0.002430
 H        -0.009672         2.839861         0.607858
 H        -2.072943         1.599218        -1.922740
