19
Iteration:  1165
 O        -0.616255         0.183329         0.371838
 C        -1.877584         0.864878         0.261343
 C        -3.228939         0.295015        -0.055147
 C        -3.420058         1.866473        -0.071954
 C        -2.517846         1.964119         1.235974
 C        -1.704689         3.236695         1.443457
 C        -0.783775         3.627211         0.251204
 O        -1.246107         3.005798        -0.993317
 C        -2.014709         1.864274        -0.856459
 H         0.053539         0.401165        -0.366613
 H        -3.239874        -0.273838        -1.006077
 H        -3.706495        -0.292989         0.717000
 H        -4.367151         2.380871        -0.003137
 H        -2.749250         1.430567         2.176958
 H        -2.381974         4.081824         1.714622
 H        -1.155513         2.916049         2.297914
 H        -0.655071         4.722061         0.100025
 H         0.192857         3.279783         0.440604
 H        -2.220193         1.427956        -1.922373
