19
Iteration:  2257
 O        -0.585985         0.148787         0.540849
 C        -1.764485         0.867884         0.173929
 C        -3.149491         0.319368        -0.122358
 C        -3.386754         1.828051        -0.042900
 C        -2.349145         1.918333         1.094408
 C        -1.647288         3.186968         1.391784
 C        -0.789427         3.534370         0.303783
 O        -1.491223         3.194653        -0.990269
 C        -2.130751         1.959229        -0.893519
 H        -0.720238        -0.575559         1.167853
 H        -3.291639        -0.043278        -1.225795
 H        -3.576089        -0.378476         0.699233
 H        -4.186562         2.474950        -0.354399
 H        -2.838348         1.507601         2.036093
 H        -2.524024         3.874747         1.708858
 H        -1.093319         2.992771         2.312217
 H        -0.451267         4.587738         0.129065
 H         0.095744         2.842524         0.558202
 H        -2.168441         1.585734        -1.999483
