19
Iteration:  2460
 O        -0.489217         0.325282         0.425031
 C        -1.805534         0.889363         0.244313
 C        -3.205031         0.265355        -0.071014
 C        -3.460990         1.781375        -0.088834
 C        -2.490988         1.874804         1.192262
 C        -1.656595         3.143302         1.446587
 C        -0.769105         3.471389         0.294440
 O        -1.330417         3.211912        -1.003602
 C        -2.133443         1.973300        -0.963390
 H        -0.715026        -0.626584         0.583359
 H        -3.330818        -0.427508        -0.898896
 H        -3.833296        -0.169771         0.764376
 H        -4.574531         2.293208        -0.092246
 H        -3.080303         1.548142         2.080016
 H        -2.459033         3.962270         1.627066
 H        -1.029693         3.003918         2.386553
 H        -0.314890         4.439574         0.459633
 H         0.145924         2.766406         0.407306
 H        -2.024489         1.569298        -2.013599
