19
Iteration:   296charge 0 multiplicity 1
 O        -0.611229         0.309730         0.613069
 C        -1.850690         0.857950         0.340698
 C        -3.322290         0.315690        -0.059885
 C        -3.402935         1.868929        -0.105436
 C        -2.464657         1.949778         1.221278
 C        -1.506727         3.143196         1.415475
 C        -0.795993         3.491114         0.122352
 O        -1.376461         3.009318        -1.079319
 C        -2.061687         1.845842        -0.929427
 H         0.089000         0.950124         0.252297
 H        -3.416269        -0.079426        -1.169195
 H        -3.921233        -0.214756         0.685839
 H        -4.347563         2.368164        -0.249481
 H        -2.927712         1.523547         2.193323
 H        -2.157040         4.074551         1.620087
 H        -0.787117         3.032914         2.367940
 H        -0.660699         4.656393         0.177840
 H         0.238443         3.183090         0.170563
 H        -2.049036         1.449903        -1.941005
