19
Iteration:  3051charge 0 multiplicity 1
 O        -0.552789         0.221316         0.290583
 C        -1.749596         0.928050         0.151130
 C        -3.144881         0.185952        -0.102581
 C        -3.422253         1.808905        -0.013098
 C        -2.508502         1.988655         1.204835
 C        -1.743939         3.383132         1.493136
 C        -0.755625         3.461111         0.345950
 O        -1.376621         3.120443        -0.913213
 C        -2.079862         1.891742        -0.935099
 H        -0.771620        -0.586398         0.872751
 H        -3.339946        -0.223901        -1.165334
 H        -3.658018        -0.433833         0.689390
 H        -4.411664         2.336248        -0.208084
 H        -2.560237         1.367466         2.145722
 H        -2.309604         4.279695         1.402877
 H        -1.345067         3.211808         2.487651
 H        -0.339602         4.447913         0.189242
 H        -0.018348         2.641333         0.519830
 H        -2.114042         1.457795        -2.002483
