19
Iteration:  2764
 O        -0.628305         0.107374         0.434697
 C        -1.753816         0.956942         0.299769
 C        -3.141875         0.235663        -0.131750
 C        -3.360929         1.789000        -0.157453
 C        -2.434240         1.920498         1.232958
 C        -1.686288         3.208649         1.446692
 C        -0.805895         3.577417         0.286073
 O        -1.442584         3.245069        -0.942470
 C        -2.054938         1.896239        -0.940444
 H        -1.016612        -0.746628         0.387813
 H        -3.255589        -0.265307        -1.141906
 H        -3.524063        -0.270575         0.824453
 H        -4.343012         2.321778        -0.457396
 H        -2.967158         1.465846         1.999038
 H        -2.298818         4.078479         1.714417
 H        -0.928648         2.940910         2.250277
 H        -0.592885         4.612022         0.412304
 H         0.206177         3.206667         0.435393
 H        -1.887956         1.737717        -2.023940
