19
Iteration:  1425
 O        -0.683119         0.048043         0.579263
 C        -1.780817         0.832010         0.198465
 C        -3.240187         0.374185        -0.046007
 C        -3.274593         1.832211        -0.088403
 C        -2.420814         1.865644         1.171631
 C        -1.646229         3.161310         1.521848
 C        -0.908435         3.680568         0.208621
 O        -1.369447         3.151688        -1.056576
 C        -2.035625         1.908497        -0.939483
 H        -0.028860         0.271354        -0.064046
 H        -3.466459        -0.155187        -1.008335
 H        -3.612717        -0.250697         0.781643
 H        -4.101068         2.611478        -0.274577
 H        -2.908474         1.387846         2.019695
 H        -2.234659         4.012357         1.762460
 H        -0.878859         3.017414         2.426551
 H        -0.855828         4.742070        -0.004423
 H         0.180956         3.393233         0.323639
 H        -2.174557         1.640774        -1.936368
