19
Iteration:  1611
 O        -0.604111         0.145930         0.318121
 C        -1.782804         0.827470         0.348950
 C        -3.268904         0.358774        -0.108020
 C        -3.339088         1.868694        -0.113678
 C        -2.448446         1.906803         1.216053
 C        -1.644620         3.209917         1.499598
 C        -0.895994         3.716590         0.291855
 O        -1.299155         3.051051        -1.056506
 C        -2.010402         1.842379        -0.867997
 H        -0.385455        -0.387689         1.052143
 H        -3.236307        -0.249303        -1.068669
 H        -4.107706        -0.091984         0.500140
 H        -4.330347         2.351873        -0.409667
 H        -2.918856         1.533992         2.173867
 H        -2.351947         3.951135         1.848086
 H        -0.962966         3.103120         2.335663
 H        -1.105837         4.747623         0.074645
 H         0.188248         3.586781         0.532282
 H        -2.243574         1.260691        -1.729087
