19
Iteration:  3262
 O        -0.604561         0.011310         0.350963
 C        -1.752977         0.895448         0.225337
 C        -3.205602         0.327547         0.024323
 C        -3.370115         1.838634        -0.135280
 C        -2.456533         1.894311         1.145075
 C        -1.710912         3.132904         1.487682
 C        -0.788139         3.633674         0.337867
 O        -1.446899         3.224871        -0.967680
 C        -2.027190         1.850616        -0.959743
 H         0.070937         0.692158         0.754949
 H        -3.432708        -0.381930        -0.828143
 H        -3.658934         0.008620         0.971790
 H        -3.925095         2.670198        -0.369424
 H        -3.039694         1.431120         2.014117
 H        -2.464322         3.934011         1.600733
 H        -1.029593         3.209773         2.315137
 H        -0.708962         4.729729         0.470626
 H         0.150399         3.231101         0.177574
 H        -2.003319         1.535944        -2.043103
