19
Iteration:  4756
 O        -0.494216         0.199117         0.427420
 C        -1.781274         0.844981         0.119477
 C        -3.122109         0.238826        -0.338509
 C        -3.371980         1.808108        -0.301394
 C        -2.559679         1.855716         1.177990
 C        -1.859233         3.143024         1.629389
 C        -0.814412         3.467340         0.568644
 O        -1.393309         3.295596        -0.815288
 C        -1.945213         2.031637        -0.924004
 H        -0.237543        -0.274133        -0.411350
 H        -3.127900        -0.239534        -1.328805
 H        -3.760504        -0.301990         0.358887
 H        -4.313701         2.308441        -0.541034
 H        -3.209655         1.402058         1.924456
 H        -2.528607         4.024065         1.676766
 H        -1.490438         2.960899         2.655712
 H        -0.557937         4.536691         0.552346
 H         0.179332         2.877846         0.856790
 H        -1.899301         1.849206        -2.004341
