19
Iteration:  1863charge 0 multiplicity 1
 O        -0.590290         0.090107         0.387138
 C        -1.742092         0.872501         0.211756
 C        -3.225997         0.346508        -0.016149
 C        -3.363762         1.849345        -0.034344
 C        -2.429481         1.873034         1.226773
 C        -1.733763         3.191739         1.399987
 C        -0.804493         3.603382         0.244972
 O        -1.297643         3.132801        -1.025210
 C        -2.126264         1.948595        -0.926542
 H        -0.302773        -0.129886         1.345801
 H        -3.525590        -0.140827        -0.908907
 H        -3.641146        -0.262023         0.787760
 H        -4.332512         2.149734        -0.313838
 H        -2.671356         1.586892         2.254470
 H        -2.584518         3.972703         1.368931
 H        -1.232713         3.313804         2.312403
 H        -0.713538         4.642151         0.161927
 H         0.199446         3.242700         0.564177
 H        -2.469312         1.561878        -1.945372
