19
Iteration:  4459
 O        -0.571776         0.147048         0.316405
 C        -1.790111         0.942247         0.202244
 C        -3.197562         0.214496        -0.194562
 C        -3.391258         1.762992        -0.219870
 C        -2.549166         1.891712         1.153103
 C        -1.825150         3.203603         1.511653
 C        -0.776369         3.489193         0.482944
 O        -1.326974         3.244300        -0.861991
 C        -1.997126         1.959295        -0.890240
 H         0.326657         0.608606        -0.004546
 H        -3.153463        -0.376517        -1.121641
 H        -3.684796        -0.307369         0.665074
 H        -4.350159         2.317352        -0.315456
 H        -2.943313         1.477037         2.174064
 H        -2.530343         4.056919         1.498563
 H        -1.245609         3.222678         2.494611
 H        -0.534254         4.538149         0.677151
 H         0.108119         2.907827         0.736260
 H        -1.892905         1.458958        -1.915751
