19
Iteration:  4787charge 0 multiplicity 1
 O        -0.519094         0.279232         0.397267
 C        -1.725697         0.927971         0.025649
 C        -3.073417         0.337588        -0.375949
 C        -3.448215         1.837484        -0.063623
 C        -2.545145         1.705552         1.159677
 C        -1.969528         3.088477         1.551725
 C        -0.854847         3.441956         0.531490
 O        -1.234448         3.210944        -0.870344
 C        -1.933076         2.116046        -0.899338
 H        -0.707233        -0.617725         0.784325
 H        -3.129095        -0.056659        -1.424043
 H        -3.487489        -0.324789         0.432682
 H        -4.400013         2.340980        -0.235623
 H        -2.945799         1.144371         1.981181
 H        -2.732485         3.869034         1.452605
 H        -1.669279         2.881649         2.579995
 H        -0.700130         4.503394         0.568261
 H         0.005689         2.864084         0.904548
 H        -2.162941         1.831418        -1.928601
