19
Iteration:  4822
 O        -0.602443         0.218043         0.210848
 C        -1.799429         0.796138         0.165057
 C        -3.103524         0.273385        -0.353577
 C        -3.319074         1.824249        -0.220544
 C        -2.534420         1.764078         1.079864
 C        -1.911607         3.183683         1.563868
 C        -0.857941         3.534515         0.612029
 O        -1.320487         3.232086        -0.725144
 C        -1.929988         2.022331        -0.861284
 H        -0.124865         0.370404         1.072440
 H        -3.003845        -0.380010        -1.234277
 H        -3.660640        -0.301819         0.413393
 H        -4.167558         2.435548        -0.567000
 H        -2.999414         1.347066         1.984918
 H        -2.702538         3.951062         1.659533
 H        -1.558746         3.024768         2.614389
 H        -0.555430         4.585356         0.442041
 H         0.177530         3.061928         0.619764
 H        -1.763898         1.652734        -1.900263
