19
Iteration:  1590
 O        -0.528443         0.222893         0.448637
 C        -1.807520         0.844043         0.159252
 C        -3.317414         0.337881        -0.162721
 C        -3.370148         1.901454        -0.035989
 C        -2.457243         1.851233         1.208024
 C        -1.611658         3.192798         1.518503
 C        -0.909223         3.614341         0.183573
 O        -1.302895         3.056494        -0.973252
 C        -2.027374         1.842776        -0.907525
 H        -0.542490         0.041763         1.453664
 H        -3.656060         0.004051        -1.195727
 H        -3.720351        -0.376113         0.612094
 H        -4.167356         2.678502        -0.152906
 H        -3.052062         1.559154         2.091794
 H        -2.236461         3.927783         1.909639
 H        -0.883389         2.913574         2.365384
 H        -1.044662         4.695169        -0.046839
 H         0.172461         3.374772         0.394773
 H        -2.151515         1.420474        -1.897477
