19
Iteration:   588
 O        -0.586177         0.210608         0.349268
 C        -1.855417         0.817162         0.274525
 C        -3.336557         0.315198        -0.038252
 C        -3.371058         1.856466         0.003693
 C        -2.440213         1.955000         1.254361
 C        -1.718257         3.350908         1.360736
 C        -0.881069         3.714959         0.229382
 O        -1.094297         2.797274        -0.941285
 C        -2.091103         1.799585        -0.826104
 H        -0.094173         0.384604        -0.525132
 H        -3.447128        -0.149475        -1.040909
 H        -4.047530         0.021083         0.708691
 H        -4.191396         2.465632        -0.219812
 H        -2.766681         1.708369         2.315428
 H        -2.411793         4.286165         1.419903
 H        -1.050019         3.381882         2.241574
 H        -1.068198         4.741531        -0.273803
 H         0.132918         3.566370         0.388411
 H        -2.431667         1.464483        -1.927961
