19
Iteration:  4864
 O        -0.658027         0.029090         0.442430
 C        -1.730259         0.907175         0.101919
 C        -2.982566         0.247712        -0.365464
 C        -3.319863         1.846303        -0.246730
 C        -2.522502         1.775582         1.151345
 C        -1.897996         3.109423         1.595243
 C        -0.915493         3.532130         0.542133
 O        -1.315546         3.362780        -0.799568
 C        -1.998791         2.087994        -0.979139
 H         0.146414         0.544857         0.046588
 H        -3.172427        -0.237022        -1.361293
 H        -3.427918        -0.488371         0.389766
 H        -4.233215         2.477318        -0.227541
 H        -3.012041         1.186037         1.924401
 H        -2.704508         3.830639         1.838126
 H        -1.330336         2.963543         2.584296
 H        -0.606428         4.553098         0.823206
 H        -0.130761         2.909288         0.822427
 H        -2.139067         1.646187        -2.012014
