19
Iteration:  1772charge 0 multiplicity 1
 O        -0.589103         0.231804         0.531297
 C        -1.790326         0.908957         0.231944
 C        -3.208567         0.295838        -0.131120
 C        -3.397076         1.916422        -0.017944
 C        -2.470660         1.886129         1.203690
 C        -1.668629         3.222475         1.474834
 C        -0.761251         3.481710         0.238990
 O        -1.386707         3.069954        -0.994760
 C        -2.108512         1.877009        -0.951714
 H         0.033003         0.229543        -0.170653
 H        -3.240366        -0.259546        -1.054769
 H        -3.658873        -0.328389         0.584974
 H        -4.421041         2.499887        -0.003937
 H        -2.841658         1.303972         2.041068
 H        -2.470113         4.023043         1.562367
 H        -1.006864         3.234844         2.334485
 H        -0.600770         4.544854         0.060936
 H         0.239874         2.996920         0.301764
 H        -2.160513         1.591063        -2.112080
