19
Iteration:  1437
 O        -0.547260         0.068269         0.526358
 C        -1.751241         0.842676         0.245908
 C        -3.312558         0.394201        -0.069346
 C        -3.335971         1.958630        -0.100913
 C        -2.430949         1.880459         1.229564
 C        -1.695510         3.152929         1.461995
 C        -0.854932         3.647616         0.210639
 O        -1.368537         3.103487        -1.022641
 C        -2.013841         1.850574        -0.925327
 H        -0.043883        -0.105072        -0.301441
 H        -3.539765        -0.097073        -1.037479
 H        -3.905715         0.077082         0.804375
 H        -4.296233         2.495338        -0.422268
 H        -2.919183         1.439431         2.099675
 H        -2.513910         3.830368         1.784737
 H        -1.007214         3.023561         2.434872
 H        -1.167162         4.715142         0.295097
 H         0.261357         3.517612         0.223276
 H        -2.067592         1.352455        -1.861487
