19
Iteration:  1442
 O        -0.519250         0.102808         0.486589
 C        -1.755001         0.828797         0.284581
 C        -3.328482         0.372382        -0.083321
 C        -3.369552         1.990332        -0.089247
 C        -2.434069         1.895797         1.218443
 C        -1.692311         3.151884         1.437098
 C        -0.868197         3.623028         0.242838
 O        -1.354260         3.074526        -1.012594
 C        -2.000511         1.858940        -0.918504
 H        -0.147821        -0.266554        -0.323479
 H        -3.536670        -0.202760        -0.986081
 H        -3.998273         0.071240         0.727895
 H        -4.248536         2.519073        -0.310400
 H        -2.872214         1.582729         2.205869
 H        -2.564598         3.774610         1.858064
 H        -1.071752         3.133092         2.242924
 H        -1.083974         4.741076         0.208054
 H         0.210107         3.560570         0.353808
 H        -1.923814         1.317836        -1.954624
