19
Iteration:  4190charge 0 multiplicity 1
 O        -0.594505         0.252532         0.577854
 C        -1.777170         0.854730         0.165386
 C        -3.221841         0.371052        -0.242217
 C        -3.364909         1.852909        -0.086459
 C        -2.355599         1.812286         1.120691
 C        -1.743632         3.196490         1.470248
 C        -0.757392         3.521547         0.352843
 O        -1.393038         3.106750        -0.944784
 C        -2.117778         1.955758        -0.895954
 H        -0.009764        -0.018630        -0.181544
 H        -3.214874        -0.209606        -1.178050
 H        -3.773099        -0.103157         0.653113
 H        -4.399148         2.135821        -0.257531
 H        -2.797480         1.146249         1.939129
 H        -2.624752         3.812520         1.436310
 H        -1.423463         3.294409         2.469829
 H        -0.573310         4.586235         0.440167
 H         0.086353         2.979258         0.530382
 H        -2.006344         1.583223        -1.884012
