19
Iteration:  2798charge 0 multiplicity 1
 O        -0.513394         0.173403         0.535577
 C        -1.666339         0.859610         0.191717
 C        -3.289403         0.278612        -0.138472
 C        -3.372043         1.833018        -0.123032
 C        -2.404830         1.885621         1.198620
 C        -1.731768         3.220802         1.516654
 C        -0.810310         3.527730         0.300281
 O        -1.434149         3.242794        -0.960136
 C        -2.077440         1.934786        -1.000696
 H        -0.740471        -0.698199         0.382432
 H        -3.581996        -0.212190        -1.115676
 H        -3.792538        -0.458718         0.624360
 H        -4.309387         2.352203        -0.368659
 H        -2.843944         1.486941         2.043816
 H        -2.340520         4.097575         1.857284
 H        -0.960114         3.140230         2.296825
 H        -0.462084         4.498354         0.254763
 H        -0.080596         2.747284         0.269186
 H        -2.094590         1.642444        -2.083133
