19
Iteration:  3334charge 0 multiplicity 1
 O        -0.551430         0.202318         0.488197
 C        -1.736252         0.846672         0.188330
 C        -3.347366         0.277066        -0.068802
 C        -3.352710         1.849455        -0.092816
 C        -2.419052         1.807021         1.194162
 C        -1.760768         3.171448         1.469968
 C        -0.806398         3.580547         0.371476
 O        -1.316515         3.203107        -1.046931
 C        -2.080131         1.924967        -0.937245
 H         0.004891        -0.002343        -0.338588
 H        -3.411735        -0.176826        -1.064749
 H        -3.797032        -0.295688         0.775186
 H        -4.306778         2.524393        -0.123271
 H        -2.807107         1.537889         2.155553
 H        -2.647410         3.783679         1.609715
 H        -1.135017         3.199705         2.435479
 H        -0.607051         4.609152         0.180999
 H         0.124101         2.990680         0.494150
 H        -2.092671         1.585377        -1.978365
