19
Iteration:  3984
 O        -0.592217         0.173094         0.531742
 C        -1.797282         0.916587         0.180114
 C        -3.112778         0.216800        -0.205092
 C        -3.381562         1.851154        -0.017648
 C        -2.421731         1.833143         1.221333
 C        -1.766567         3.232948         1.316388
 C        -0.759259         3.395365         0.358891
 O        -1.360506         3.255267        -0.943266
 C        -2.100788         2.045519        -0.859683
 H        -0.523903        -0.466711        -0.120087
 H        -3.277756        -0.129024        -1.212806
 H        -3.493276        -0.486169         0.585896
 H        -4.407786         2.274028        -0.054407
 H        -2.938021         1.506948         2.118070
 H        -2.616903         3.826511         0.925803
 H        -1.428172         3.469336         2.381704
 H        -0.587027         4.414787         0.245549
 H         0.120977         2.844698         0.375678
 H        -2.117113         1.728333        -1.877744
