19
Iteration:  1631
 O        -0.643091         0.060372         0.311075
 C        -1.762462         0.869318         0.176666
 C        -3.217829         0.273821         0.035636
 C        -3.319142         1.852539        -0.047492
 C        -2.496757         1.982961         1.207715
 C        -1.766941         3.195274         1.451705
 C        -0.881261         3.735199         0.231400
 O        -1.247105         3.063948        -0.942496
 C        -1.981050         1.934981        -0.955471
 H        -0.904770        -0.623179         0.928063
 H        -3.432999        -0.437789        -0.790208
 H        -3.479854        -0.281482         0.947307
 H        -4.254719         2.531801        -0.253084
 H        -2.876029         1.409683         2.089065
 H        -2.460259         4.085403         1.828309
 H        -1.102184         3.115935         2.214013
 H        -1.010699         4.771355         0.202850
 H         0.218785         3.609986         0.416131
 H        -1.940239         1.425830        -1.985665
