19
Iteration:  4823charge 0 multiplicity 1
 O        -0.597582         0.211694         0.210151
 C        -1.800550         0.800383         0.168239
 C        -3.102343         0.277276        -0.353339
 C        -3.315976         1.823809        -0.225412
 C        -2.540557         1.772064         1.079535
 C        -1.911024         3.177912         1.563652
 C        -0.862352         3.530712         0.618433
 O        -1.326777         3.234296        -0.726164
 C        -1.929671         2.011734        -0.861096
 H        -0.135392         0.386803         1.031749
 H        -3.028706        -0.376479        -1.226049
 H        -3.628750        -0.288309         0.435230
 H        -4.148180         2.466777        -0.570857
 H        -3.015691         1.323278         1.992291
 H        -2.695584         3.960831         1.655254
 H        -1.535766         3.057102         2.617388
 H        -0.559089         4.599372         0.458094
 H         0.218577         3.075492         0.593306
 H        -1.730831         1.661335        -1.909037
