19
Iteration:  1575
 O        -0.606855         0.256719         0.498965
 C        -1.808139         0.857767         0.182796
 C        -3.234604         0.356631        -0.066699
 C        -3.386912         1.870108        -0.062293
 C        -2.422153         1.850625         1.142620
 C        -1.647743         3.046937         1.423589
 C        -0.812900         3.634334         0.304062
 O        -1.298960         3.064155        -1.049154
 C        -2.112354         1.946444        -0.934679
 H        -0.594332         0.093354         1.436424
 H        -3.380167        -0.230360        -0.972212
 H        -3.727095         0.000522         0.831947
 H        -4.417802         2.303635        -0.227702
 H        -2.671681         1.267943         2.061548
 H        -2.410486         3.843880         1.810718
 H        -0.971497         2.882452         2.172225
 H        -0.885705         4.695278         0.294547
 H         0.235624         3.279193         0.261145
 H        -2.179473         1.703048        -2.041412
