19
Iteration:  1190charge 0 multiplicity 1
 O        -0.548890         0.209822         0.604546
 C        -1.826592         0.846328         0.177257
 C        -3.351395         0.375087        -0.057135
 C        -3.341213         1.915030        -0.152134
 C        -2.368913         1.890720         1.247194
 C        -1.598150         3.088138         1.490024
 C        -0.923326         3.569397         0.254610
 O        -1.323010         3.077532        -1.035304
 C        -2.075940         1.896142        -1.002327
 H         0.138588         0.140702        -0.125020
 H        -3.575832        -0.202783        -0.988078
 H        -3.898107        -0.103925         0.803480
 H        -4.307225         2.445969        -0.250825
 H        -2.823310         1.397140         2.146886
 H        -2.383434         3.881771         1.664923
 H        -0.898516         2.983489         2.326781
 H        -0.935685         4.702963         0.248409
 H         0.123744         3.386409         0.348054
 H        -2.257587         1.524826        -2.062938
