19
Iteration:  2057
 O        -0.592483         0.220418         0.412557
 C        -1.804200         0.849175         0.242123
 C        -3.199707         0.324213        -0.114175
 C        -3.331422         1.938844        -0.010916
 C        -2.424900         1.833669         1.228605
 C        -1.650337         3.151024         1.453456
 C        -0.914812         3.659827         0.163363
 O        -1.324080         3.033413        -0.989677
 C        -2.063554         1.882441        -0.899959
 H        -0.632507        -0.290945         1.259510
 H        -3.358415        -0.057461        -1.118391
 H        -3.717369        -0.211989         0.684173
 H        -4.293862         2.492967        -0.080138
 H        -3.126418         1.497489         1.946025
 H        -2.279574         3.973556         1.693196
 H        -0.940722         2.969587         2.288210
 H        -1.051363         4.693572         0.110557
 H         0.123755         3.452664         0.282435
 H        -1.983001         1.473935        -1.881956
