19
Iteration:  2284
 O        -0.554616         0.287090         0.412616
 C        -1.814224         0.935744         0.274126
 C        -3.164722         0.228052        -0.069980
 C        -3.439048         1.799607        -0.141898
 C        -2.521668         1.908482         1.247916
 C        -1.619917         3.174552         1.497649
 C        -0.719760         3.385210         0.294123
 O        -1.443298         3.226103        -1.070860
 C        -2.080607         1.967316        -0.916903
 H        -0.549893        -0.577115         0.799989
 H        -3.170480        -0.181795        -1.005075
 H        -3.585473        -0.219777         0.770749
 H        -4.292846         2.496914        -0.395890
 H        -3.084323         1.446403         2.034359
 H        -2.270099         4.038934         1.544033
 H        -1.074558         3.066954         2.462796
 H        -0.572894         4.431277         0.256738
 H         0.168110         2.807252         0.393655
 H        -1.881134         1.430000        -1.850181
