19
Iteration:  4614
 O        -0.578877         0.199292         0.261227
 C        -1.780372         0.847231         0.138589
 C        -3.113584         0.194055        -0.257262
 C        -3.372513         1.774294        -0.148579
 C        -2.507187         1.825409         1.153494
 C        -1.902772         3.248925         1.546014
 C        -0.811229         3.460277         0.485810
 O        -1.296214         3.284488        -0.778727
 C        -1.970564         1.994841        -0.948511
 H        -0.192998         0.510737         1.181554
 H        -3.272236        -0.140047        -1.277731
 H        -3.767525        -0.448816         0.338519
 H        -4.210447         2.449047        -0.374658
 H        -2.964466         1.402781         2.091313
 H        -2.741498         3.954957         1.513482
 H        -1.488085         3.286552         2.573778
 H        -0.291259         4.438138         0.527855
 H        -0.077697         2.726607         0.741154
 H        -2.085930         1.668620        -1.970498
