19
Iteration:   611
 O        -0.619160         0.066783         0.368865
 C        -1.868901         0.884748         0.295715
 C        -3.244298         0.336550        -0.005961
 C        -3.443482         1.921953         0.026158
 C        -2.521064         1.946576         1.271227
 C        -1.731965         3.306709         1.420972
 C        -0.837181         3.713728         0.145391
 O        -1.137928         2.891217        -1.053200
 C        -2.000423         1.804105        -0.840009
 H         0.045661         0.544758        -0.094136
 H        -3.343576         0.028341        -1.065941
 H        -3.662935        -0.377534         0.684638
 H        -4.273421         2.558702         0.048210
 H        -2.854043         1.481973         2.241935
 H        -2.505891         4.171881         1.544169
 H        -1.049527         3.365965         2.288322
 H        -1.089412         4.812783        -0.195643
 H         0.201982         3.563923         0.334557
 H        -2.180803         1.259408        -1.891511
