19
Iteration:  1613
 O        -0.612738         0.137853         0.311109
 C        -1.789358         0.830697         0.339143
 C        -3.242062         0.356960        -0.085729
 C        -3.354875         1.874441        -0.123731
 C        -2.450268         1.888079         1.206072
 C        -1.647839         3.222895         1.484744
 C        -0.904878         3.711144         0.289547
 O        -1.285141         3.066955        -1.048577
 C        -2.008970         1.838472        -0.847172
 H        -0.409808        -0.438450         1.032302
 H        -3.266157        -0.233527        -1.048215
 H        -4.058242        -0.079355         0.566679
 H        -4.282561         2.328952        -0.379692
 H        -2.961838         1.593793         2.139710
 H        -2.341705         3.898253         1.805705
 H        -0.921432         3.074914         2.406448
 H        -1.137781         4.786271         0.007679
 H         0.151119         3.540907         0.548008
 H        -2.216627         1.304855        -1.737469
