19
Iteration:  3192charge 0 multiplicity 1
 O        -0.589513         0.176268         0.322859
 C        -1.765108         0.888054         0.146862
 C        -3.242716         0.256223        -0.028492
 C        -3.387679         1.832326        -0.050294
 C        -2.434430         1.889321         1.219692
 C        -1.786510         3.263791         1.392553
 C        -0.736878         3.452590         0.337972
 O        -1.355249         3.196252        -0.939258
 C        -2.099653         1.899460        -0.901689
 H         0.046247         0.848159         0.779522
 H        -3.316394        -0.333437        -0.904169
 H        -3.521250        -0.348234         0.805817
 H        -4.356587         2.519785        -0.138456
 H        -2.793928         1.335708         2.133044
 H        -2.430456         4.166676         1.424654
 H        -1.257061         3.125159         2.429397
 H        -0.364795         4.433137         0.121768
 H         0.080002         2.696878         0.469504
 H        -2.134517         1.541469        -1.958710
