19
Iteration:  1544
 O        -0.598172         0.174147         0.402640
 C        -1.823600         0.876972         0.183562
 C        -3.148805         0.283149        -0.072146
 C        -3.382557         1.810376        -0.097019
 C        -2.539845         1.983209         1.169458
 C        -1.649644         3.250976         1.450884
 C        -0.734198         3.496043         0.290815
 O        -1.436162         3.171492        -0.980563
 C        -2.027601         1.912317        -0.894220
 H        -0.536391        -0.206344         1.329017
 H        -3.339103        -0.345844        -0.988985
 H        -3.615220        -0.213696         0.828912
 H        -4.436608         2.198938        -0.428688
 H        -2.878779         1.555084         2.151609
 H        -2.237123         4.150345         1.752860
 H        -0.973894         3.003128         2.345515
 H        -0.330882         4.473359         0.273833
 H         0.037276         2.681311         0.265531
 H        -2.064582         1.551426        -1.961891
