19
Iteration:  4226
 O        -0.548740         0.148855         0.386519
 C        -1.759638         0.857107         0.228541
 C        -3.088227         0.293801        -0.101900
 C        -3.411800         1.803537        -0.211036
 C        -2.562019         1.906800         1.216265
 C        -1.804748         3.190863         1.518838
 C        -0.813992         3.531148         0.361474
 O        -1.323681         3.260087        -1.011999
 C        -2.043655         1.994133        -0.878946
 H        -0.829674        -0.786360         0.568627
 H        -3.113227        -0.359857        -0.998954
 H        -3.593312        -0.152973         0.754361
 H        -4.453881         2.117060        -0.288917
 H        -3.065848         1.534396         2.178211
 H        -2.268182         4.144941         1.708864
 H        -1.188321         2.854672         2.382892
 H        -0.384676         4.536743         0.349175
 H         0.092199         2.934925         0.265192
 H        -2.021445         1.444147        -1.811145
