19
Iteration:  2961
 O        -0.628042         0.076007         0.385173
 C        -1.757857         0.859013         0.254116
 C        -3.190194         0.298385        -0.084557
 C        -3.312105         1.854757        -0.091284
 C        -2.522829         1.851391         1.246068
 C        -1.686433         3.105646         1.465449
 C        -0.823052         3.667622         0.242172
 O        -1.417144         3.230168        -1.044039
 C        -2.003520         1.948807        -0.915722
 H        -0.205291         0.223990         1.301993
 H        -3.580438        -0.154264        -0.979745
 H        -3.703152        -0.148426         0.825678
 H        -4.254793         2.279546        -0.324313
 H        -2.936442         1.389546         2.166314
 H        -2.276871         3.869705         1.830852
 H        -0.838394         2.986532         2.206502
 H        -0.824939         4.711762         0.461020
 H         0.110397         3.188773         0.214203
 H        -1.815392         1.453691        -1.861733
