19
Iteration:  1635charge 0 multiplicity 1
 O        -0.649500         0.040993         0.327445
 C        -1.723717         0.899205         0.126983
 C        -3.226519         0.261361         0.041482
 C        -3.318145         1.846189        -0.018560
 C        -2.505661         1.981398         1.189673
 C        -1.787485         3.248000         1.451644
 C        -0.853952         3.735359         0.288564
 O        -1.249097         3.067753        -0.958275
 C        -1.983128         1.919861        -1.003430
 H        -0.956287        -0.733299         0.912887
 H        -3.443436        -0.518475        -0.741909
 H        -3.589009        -0.267293         0.986820
 H        -4.196632         2.390471        -0.215043
 H        -2.736454         1.398573         2.093034
 H        -2.376595         4.015738         1.752427
 H        -1.060039         3.107582         2.365586
 H        -1.123367         4.843563         0.106849
 H         0.209975         3.579203         0.542143
 H        -2.157519         1.475302        -1.931759
