19
Iteration:  2079
 O        -0.562876         0.232596         0.486627
 C        -1.772265         0.860504         0.225633
 C        -3.225341         0.283005        -0.132676
 C        -3.452055         1.778268        -0.069263
 C        -2.418274         1.969968         1.214120
 C        -1.604596         3.180629         1.508402
 C        -0.800949         3.598889         0.262502
 O        -1.381922         3.141959        -1.067505
 C        -2.106144         1.874635        -0.961038
 H        -0.567615        -0.351189         1.294525
 H        -3.413396        -0.199246        -1.088833
 H        -3.809066        -0.153784         0.699111
 H        -4.395105         2.300214        -0.374604
 H        -2.801328         1.430652         2.060706
 H        -2.159952         4.011169         1.910731
 H        -0.923997         2.736741         2.285432
 H        -0.787136         4.639793         0.169374
 H         0.168408         3.208317         0.426300
 H        -2.233007         1.566115        -1.962900
