19
Iteration:  1448charge 0 multiplicity 1
 O        -0.507127         0.169982         0.442437
 C        -1.797880         0.809788         0.301942
 C        -3.339955         0.362595        -0.079776
 C        -3.357291         1.934491        -0.079259
 C        -2.436302         1.902845         1.191163
 C        -1.700453         3.171001         1.418252
 C        -0.928110         3.628497         0.279724
 O        -1.298474         3.046607        -0.998790
 C        -2.002847         1.863865        -0.894989
 H        -0.476657        -0.450766        -0.394161
 H        -3.480931        -0.273669        -0.986579
 H        -3.983657        -0.118962         0.691044
 H        -4.234440         2.694548        -0.147951
 H        -2.859154         1.670111         2.161943
 H        -2.435644         3.926817         1.728026
 H        -0.891327         3.153042         2.310388
 H        -0.850964         4.691657        -0.063552
 H         0.154552         3.406255         0.538295
 H        -1.890319         1.481670        -1.871934
