19
Iteration:   620
 O        -0.704062         0.056664         0.410510
 C        -1.790641         0.866676         0.261801
 C        -3.197230         0.353273         0.018093
 C        -3.388849         1.912914         0.039688
 C        -2.467619         1.936407         1.255185
 C        -1.710883         3.265029         1.388901
 C        -0.887047         3.678622         0.207248
 O        -1.172911         2.933167        -1.076718
 C        -2.032344         1.860814        -0.906705
 H         0.042021         0.555159         0.143781
 H        -3.339592        -0.322000        -0.876372
 H        -3.719463        -0.022198         0.908979
 H        -4.276561         2.449221        -0.242264
 H        -2.910385         1.574518         2.236188
 H        -2.477958         4.167266         1.467117
 H        -1.133362         3.263322         2.328166
 H        -1.046246         4.713175        -0.103378
 H         0.161668         3.577890         0.281767
 H        -2.167042         1.432790        -1.949881
