19
Iteration:   811charge 0 multiplicity 1
 O        -0.640336        -0.071414         0.552258
 C        -1.759917         0.808482         0.219545
 C        -3.298850         0.339009         0.017067
 C        -3.275701         1.863987        -0.034061
 C        -2.347860         1.919312         1.204645
 C        -1.760369         3.284763         1.372774
 C        -0.799533         3.669106         0.239805
 O        -1.352133         3.177822        -1.007677
 C        -2.054760         1.896957        -1.009570
 H        -0.041223        -0.155118        -0.272896
 H        -3.502435        -0.129716        -0.932056
 H        -3.735141        -0.107071         0.918611
 H        -4.229529         2.433248        -0.181004
 H        -2.866637         1.522403         2.090196
 H        -2.628029         4.050235         1.363405
 H        -1.359328         3.364992         2.426862
 H        -0.647647         4.755218         0.225402
 H         0.192967         3.197442         0.349203
 H        -2.333194         1.704742        -2.112782
