19
Iteration:  1484
 O        -0.573073         0.211776         0.393240
 C        -1.824709         0.948278         0.159669
 C        -3.155887         0.255460        -0.002338
 C        -3.521949         1.828292        -0.008241
 C        -2.465869         1.936373         1.171797
 C        -1.725384         3.251501         1.407206
 C        -0.799874         3.524940         0.343890
 O        -1.167966         3.006755        -0.989687
 C        -2.119079         2.010196        -0.966925
 H        -0.930537        -0.738017         0.224762
 H        -3.188662        -0.331372        -0.891052
 H        -3.375264        -0.245892         0.925881
 H        -4.419316         2.346699         0.108276
 H        -2.813212         1.429286         2.078601
 H        -2.520836         4.149017         1.343004
 H        -1.316637         3.270512         2.429956
 H        -0.627142         4.700896         0.209975
 H         0.140331         2.988824         0.555757
 H        -2.327319         1.603323        -2.001904
