19
Iteration:   474
 O        -0.603336         0.252270         0.718555
 C        -1.815173         0.893607         0.207794
 C        -3.124666         0.291525         0.011175
 C        -3.441772         1.840426        -0.114284
 C        -2.435635         1.916614         1.185943
 C        -1.641045         3.187840         1.381970
 C        -0.712480         3.412864         0.181478
 O        -1.385481         3.184867        -1.050860
 C        -2.180277         1.993339        -1.066744
 H        -0.598437        -0.721660         0.414231
 H        -3.291208        -0.220501        -0.943814
 H        -3.550931        -0.217648         0.935906
 H        -4.509653         2.320286        -0.096982
 H        -2.908465         1.376801         2.019804
 H        -2.330556         3.933083         1.835456
 H        -1.022356         2.842031         2.271522
 H        -0.359050         4.356785         0.035087
 H         0.210313         2.873588         0.189945
 H        -2.203649         1.768043        -2.084685
