19
Iteration:  1092charge 0 multiplicity 1
 O        -0.687574         0.063559         0.344063
 C        -1.784970         0.891088         0.229646
 C        -3.097011         0.299792        -0.040866
 C        -3.442101         1.879905         0.018818
 C        -2.458950         1.927108         1.224011
 C        -1.735800         3.270045         1.361224
 C        -0.694139         3.506113         0.266173
 O        -1.384810         3.147732        -1.014014
 C        -2.058769         1.937902        -0.891424
 H        -0.003599         0.309302         1.031533
 H        -3.057775        -0.426621        -0.891390
 H        -3.770464        -0.012958         0.790562
 H        -4.331491         2.374730        -0.329697
 H        -2.832730         1.470295         2.143021
 H        -2.594941         3.991907         1.435816
 H        -1.339972         3.278515         2.449207
 H        -0.389689         4.619187         0.181168
 H         0.225240         2.792035         0.414096
 H        -2.087121         1.405227        -1.819361
