19
Iteration:  2726charge 0 multiplicity 1
 O        -0.517800         0.195756         0.418401
 C        -1.771316         0.919384         0.196758
 C        -3.221696         0.329108        -0.122802
 C        -3.330425         1.861044        -0.043764
 C        -2.415710         1.839073         1.223689
 C        -1.797283         3.192563         1.390956
 C        -0.836953         3.489824         0.342727
 O        -1.308721         3.152463        -0.956245
 C        -2.116443         1.951393        -0.948602
 H        -0.798130        -0.726210         0.393996
 H        -3.391763        -0.199137        -1.049882
 H        -3.628136        -0.186549         0.706951
 H        -4.106891         2.546596        -0.106487
 H        -2.795901         1.414599         2.230307
 H        -2.616230         3.935937         1.475348
 H        -1.231723         3.268267         2.305884
 H        -0.813839         4.644504         0.257122
 H         0.184532         3.006953         0.499987
 H        -2.288399         1.467042        -1.872579
