19
Iteration:   657charge 0 multiplicity 1
 O        -0.723830        -0.081183         0.592422
 C        -1.760359         0.798097         0.201534
 C        -3.220439         0.332502        -0.024346
 C        -3.307596         1.815582        -0.034012
 C        -2.398065         2.012077         1.152252
 C        -1.616513         3.299880         1.390227
 C        -0.750629         3.619789         0.186219
 O        -1.511560         3.212953        -1.063629
 C        -1.992096         1.878123        -0.960615
 H        -0.067882         0.401502         1.103687
 H        -3.453700        -0.404774        -0.784088
 H        -3.676169         0.001583         0.924313
 H        -4.230803         2.309478        -0.403544
 H        -2.816914         1.698815         2.121353
 H        -2.444671         4.062260         1.559332
 H        -1.051111         3.181602         2.355843
 H        -0.749363         4.799539         0.170660
 H         0.216651         3.114689         0.306270
 H        -2.014651         1.373711        -2.049223
