19
Iteration:  3358
 O        -0.577406         0.241188         0.345586
 C        -1.731380         0.909694         0.159292
 C        -3.149030         0.304070        -0.017485
 C        -3.386048         1.826655        -0.105266
 C        -2.532761         1.908798         1.169663
 C        -1.776755         3.269953         1.455147
 C        -0.781667         3.463234         0.381266
 O        -1.361625         3.116545        -0.859001
 C        -2.049125         1.878798        -0.957625
 H        -0.486565        -0.503899        -0.313188
 H        -3.281100        -0.278592        -0.928782
 H        -3.582705        -0.142681         0.830508
 H        -4.290499         2.347780        -0.374194
 H        -2.861571         1.578535         2.140045
 H        -2.539111         4.078315         1.545306
 H        -1.208747         3.185803         2.462515
 H        -0.561818         4.459775         0.050248
 H         0.187724         2.863311         0.563430
 H        -2.065925         1.685111        -2.071522
