19
Iteration:  4168charge 0 multiplicity 1
 O        -0.565839         0.161296         0.468705
 C        -1.813106         0.852965         0.180549
 C        -3.234047         0.239495        -0.123126
 C        -3.393362         1.846543        -0.086998
 C        -2.538047         1.884308         1.216277
 C        -1.786563         3.216980         1.419754
 C        -0.796357         3.496474         0.338129
 O        -1.283339         3.203994        -0.954025
 C        -2.028371         1.950443        -0.951251
 H         0.159195         0.722556         0.120554
 H        -3.254736        -0.303471        -1.089372
 H        -3.476656        -0.545326         0.667860
 H        -4.220309         2.555968        -0.243508
 H        -2.975489         1.354853         2.128599
 H        -2.325927         4.126344         1.621221
 H        -1.292989         2.972499         2.318272
 H        -0.623918         4.537249         0.607760
 H         0.061380         2.935169         0.396920
 H        -1.985461         1.679344        -1.977685
