19
Iteration:   295
 O        -0.607023         0.305635         0.608339
 C        -1.852865         0.853434         0.338133
 C        -3.319964         0.320160        -0.068839
 C        -3.398743         1.878730        -0.107256
 C        -2.466674         1.950657         1.227168
 C        -1.511579         3.145845         1.422298
 C        -0.798109         3.485126         0.121719
 O        -1.382986         3.004141        -1.082806
 C        -2.058515         1.846526        -0.923218
 H         0.069479         0.967642         0.274906
 H        -3.411086        -0.081011        -1.149047
 H        -3.896646        -0.190459         0.701447
 H        -4.305137         2.348430        -0.201188
 H        -2.927298         1.549955         2.166563
 H        -2.134933         4.085166         1.594929
 H        -0.817945         3.053702         2.366655
 H        -0.677067         4.650957         0.203076
 H         0.258671         3.200893         0.160341
 H        -2.042954         1.411315        -1.937994
