19
Iteration:  1125charge 0 multiplicity 1
 O        -0.592593         0.027953         0.320806
 C        -1.735523         0.817795         0.114407
 C        -3.205031         0.330120         0.032716
 C        -3.420922         1.920280         0.101414
 C        -2.426913         1.978960         1.199598
 C        -1.892817         3.365738         1.368480
 C        -0.797495         3.450691         0.351790
 O        -1.289595         3.095919        -0.958796
 C        -2.033253         1.903864        -0.979272
 H         0.024548         0.699696         0.107120
 H        -3.384255        -0.324456        -0.866168
 H        -3.762611        -0.131901         0.895686
 H        -4.408439         2.329053        -0.128909
 H        -2.656575         1.627803         2.212618
 H        -2.703024         4.097381         1.148427
 H        -1.263774         3.509480         2.312166
 H        -0.202777         4.433794         0.235232
 H         0.045640         2.745036         0.723366
 H        -2.027923         1.542074        -1.998685
