19
Iteration:  2253charge 0 multiplicity 1
 O        -0.575329         0.118963         0.535000
 C        -1.749710         0.850399         0.184163
 C        -3.151188         0.306518        -0.109298
 C        -3.400248         1.842735        -0.071494
 C        -2.339166         1.907016         1.106083
 C        -1.660937         3.215093         1.406142
 C        -0.799890         3.538423         0.315248
 O        -1.479667         3.201160        -1.010189
 C        -2.147678         1.964987        -0.912216
 H        -0.712124        -0.595465         1.242540
 H        -3.351953        -0.132283        -1.101113
 H        -3.643882        -0.454012         0.564750
 H        -4.268294         2.615865        -0.271634
 H        -2.778761         1.516637         1.998547
 H        -2.383273         3.883494         1.657419
 H        -1.136519         3.037676         2.415332
 H        -0.512948         4.554802         0.218229
 H         0.161072         2.995000         0.440339
 H        -2.105015         1.686481        -1.884443
