19
Iteration:  3603
 O        -0.554342         0.332959         0.380448
 C        -1.827311         0.955734         0.201010
 C        -3.113974         0.261295        -0.203155
 C        -3.400393         1.868961        -0.065490
 C        -2.506380         1.810416         1.218093
 C        -1.765397         3.184291         1.512188
 C        -0.726102         3.404362         0.373081
 O        -1.248471         3.120539        -1.002726
 C        -2.186683         1.944747        -0.947345
 H        -0.540545         0.235509         1.317502
 H        -3.287674        -0.141419        -1.185938
 H        -3.596777        -0.426459         0.546067
 H        -4.480273         2.307889        -0.140002
 H        -3.011040         1.301727         2.041710
 H        -2.557995         4.046918         1.626882
 H        -1.378290         3.046243         2.543826
 H        -0.451336         4.469483         0.164948
 H         0.226952         2.920709         0.672867
 H        -2.351915         1.558456        -1.995882
