19
Iteration:  2080
 O        -0.570193         0.235181         0.488345
 C        -1.774064         0.857650         0.230983
 C        -3.219637         0.277847        -0.127192
 C        -3.450285         1.778023        -0.063780
 C        -2.408086         1.971123         1.202849
 C        -1.607607         3.173241         1.501047
 C        -0.801922         3.595296         0.263656
 O        -1.384259         3.149622        -1.065693
 C        -2.106842         1.873348        -0.958552
 H        -0.554124        -0.330574         1.253678
 H        -3.414607        -0.178795        -1.077518
 H        -3.807915        -0.120545         0.704514
 H        -4.407751         2.255562        -0.358525
 H        -2.845380         1.456956         2.059082
 H        -2.140718         4.050190         1.905960
 H        -0.964503         2.720147         2.268950
 H        -0.751982         4.643223         0.211768
 H         0.179836         3.194112         0.433092
 H        -2.195081         1.566673        -2.053035
