19
Iteration:  4188charge 0 multiplicity 1
 O        -0.587592         0.242066         0.571732
 C        -1.770108         0.848429         0.171345
 C        -3.234918         0.352309        -0.235007
 C        -3.357604         1.835155        -0.079283
 C        -2.379658         1.813833         1.114812
 C        -1.747251         3.185116         1.471812
 C        -0.748796         3.526676         0.346685
 O        -1.387033         3.118986        -0.944520
 C        -2.118179         1.966850        -0.894460
 H         0.006080         0.135811        -0.116569
 H        -3.269477        -0.171218        -1.221889
 H        -3.806779        -0.019430         0.685114
 H        -4.408357         2.120343        -0.274753
 H        -2.825048         1.206706         1.910659
 H        -2.681264         3.782595         1.441633
 H        -1.389041         3.344576         2.489376
 H        -0.480665         4.610454         0.349607
 H         0.184821         3.011423         0.619399
 H        -2.054388         1.590754        -1.957244
