19
Iteration:   329
 O        -0.658085         0.266773         0.633516
 C        -1.809821         0.903157         0.244728
 C        -3.141797         0.270200         0.082286
 C        -3.441573         1.850886        -0.105937
 C        -2.536679         1.994135         1.126047
 C        -1.524014         3.142461         1.412235
 C        -0.758305         3.496971         0.203972
 O        -1.357455         3.091485        -1.063502
 C        -2.081784         1.937302        -1.017408
 H        -0.480045        -0.553290         0.152994
 H        -3.520331        -0.402539        -0.804063
 H        -3.584398        -0.205473         0.955553
 H        -4.429840         2.217988        -0.192776
 H        -3.026270         1.546364         2.058643
 H        -2.224687         4.001755         1.643476
 H        -0.839440         2.933307         2.349569
 H        -0.791137         4.635617        -0.007754
 H         0.226864         3.069114         0.136463
 H        -2.150612         1.618215        -2.054911
