19
Iteration:  2294charge 0 multiplicity 1
 O        -0.515417         0.332948         0.356189
 C        -1.823909         0.890423         0.310609
 C        -3.163985         0.285288        -0.043490
 C        -3.418692         1.824197        -0.133828
 C        -2.521893         1.958260         1.161052
 C        -1.687184         3.127086         1.463971
 C        -0.728447         3.445277         0.318203
 O        -1.391636         3.178289        -0.997628
 C        -2.118687         1.915496        -0.906801
 H        -0.641265        -0.499115         0.735384
 H        -3.170271        -0.311758        -0.914453
 H        -3.588925        -0.314339         0.712661
 H        -4.382113         2.217847        -0.483159
 H        -2.965292         1.735514         2.126370
 H        -2.381813         3.990091         1.713855
 H        -1.021515         2.995936         2.316585
 H        -0.189806         4.383269         0.326228
 H         0.023831         2.673213         0.272826
 H        -2.213099         1.338599        -1.879346
