19
Iteration:  3177charge 0 multiplicity 1
 O        -0.546242         0.154084         0.349132
 C        -1.773495         0.887926         0.183481
 C        -3.177091         0.336981        -0.009070
 C        -3.376043         1.835715        -0.062673
 C        -2.484583         1.978798         1.118384
 C        -1.704719         3.223999         1.548825
 C        -0.798271         3.435902         0.295455
 O        -1.455874         3.093264        -0.918943
 C        -2.035132         1.893333        -1.008868
 H         0.189472         0.750093         0.413894
 H        -3.567895        -0.097971        -0.948779
 H        -3.736045        -0.057212         0.875698
 H        -4.201817         2.379593        -0.373390
 H        -2.883030         1.533543         1.969898
 H        -2.554401         3.948402         1.700565
 H        -1.177780         3.286106         2.483200
 H        -0.492555         4.496713         0.413769
 H         0.162095         2.854686         0.496043
 H        -2.111388         1.556881        -1.999488
