19
Iteration:  1224charge 0 multiplicity 1
 O        -0.634722         0.104452         0.634851
 C        -1.818239         0.882364         0.237070
 C        -3.189823         0.279946        -0.140561
 C        -3.407829         1.785936        -0.093476
 C        -2.519171         1.940809         1.211834
 C        -1.490069         3.195736         1.441757
 C        -0.842536         3.597516         0.213194
 O        -1.401143         3.207991        -1.030296
 C        -2.037719         1.959060        -0.959856
 H        -0.646815        -0.768783         0.207746
 H        -3.253981        -0.104280        -1.189719
 H        -3.561324        -0.349422         0.721546
 H        -4.380775         2.198247        -0.407392
 H        -2.762713         1.647906         2.265529
 H        -2.077118         3.979167         1.978948
 H        -0.718832         2.830668         2.220477
 H        -0.992737         4.714398         0.237817
 H         0.187174         3.256899         0.127663
 H        -2.154176         1.632331        -2.045166
