19
Iteration:  3060charge 0 multiplicity 1
 O        -0.578897         0.205673         0.299279
 C        -1.826605         0.849809         0.182171
 C        -3.083351         0.224023        -0.065642
 C        -3.400841         1.743720        -0.043476
 C        -2.481469         2.000202         1.161756
 C        -1.760919         3.342403         1.451774
 C        -0.717552         3.494872         0.349570
 O        -1.386686         3.143320        -0.903452
 C        -2.097818         1.935441        -0.950893
 H        -0.773215        -0.763203         0.591823
 H        -3.271697        -0.153007        -1.050900
 H        -3.634702        -0.307781         0.720225
 H        -4.363277         2.250636        -0.125601
 H        -2.900581         1.649612         2.236706
 H        -2.328749         4.210390         1.684456
 H        -1.129665         3.251373         2.388130
 H        -0.384113         4.490360         0.125861
 H         0.136107         2.937286         0.737495
 H        -2.074296         1.497756        -1.966388
