19
Iteration:  2623charge 0 multiplicity 1
 O        -0.519769         0.137540         0.458765
 C        -1.759069         0.958630         0.168615
 C        -3.245081         0.324660        -0.159399
 C        -3.388230         1.797935        -0.085401
 C        -2.388252         1.870424         1.137518
 C        -1.704239         3.172531         1.487353
 C        -0.778930         3.552411         0.376794
 O        -1.431956         3.130540        -1.000535
 C        -2.079448         1.950544        -0.929371
 H        -0.638593         0.048699         1.403610
 H        -3.415788        -0.079008        -1.189744
 H        -3.782476        -0.231561         0.654250
 H        -4.396939         2.425820        -0.041398
 H        -2.910536         1.377215         2.068608
 H        -2.412580         4.039924         1.588316
 H        -1.071210         3.074487         2.366543
 H        -0.572869         4.601834         0.379390
 H         0.205189         3.078133         0.213356
 H        -2.249902         1.575328        -2.029345
