19
Iteration:   268charge 0 multiplicity 1
 O        -0.629001         0.114201         0.457090
 C        -1.757856         0.901745         0.288270
 C        -3.233697         0.321729         0.089490
 C        -3.360186         1.885845        -0.068413
 C        -2.468960         1.983440         1.204102
 C        -1.708970         3.259254         1.395107
 C        -0.830080         3.531340         0.138388
 O        -1.325318         3.020668        -1.080295
 C        -2.071482         1.873344        -0.929896
 H         0.095916         0.570241         0.957330
 H        -3.376423        -0.110271        -0.858139
 H        -3.717765        -0.194244         0.932203
 H        -4.344591         2.537010        -0.313449
 H        -2.807374         1.514215         2.113383
 H        -2.327056         4.101757         1.628616
 H        -1.068801         3.186743         2.205019
 H        -0.436453         4.484053         0.141076
 H         0.068781         2.875721         0.440180
 H        -2.242347         1.516312        -1.981103
