19
Iteration:  1223charge 0 multiplicity 1
 O        -0.638196         0.109145         0.636741
 C        -1.815924         0.890437         0.224849
 C        -3.197896         0.276775        -0.137513
 C        -3.392862         1.793167        -0.091065
 C        -2.514899         1.940549         1.214233
 C        -1.491075         3.176724         1.440697
 C        -0.846269         3.602532         0.209072
 O        -1.398251         3.206641        -1.031305
 C        -2.037076         1.951633        -0.951528
 H        -0.594269        -0.733874         0.225175
 H        -3.294336        -0.093752        -1.190876
 H        -3.561134        -0.357522         0.729395
 H        -4.375904         2.207724        -0.399320
 H        -2.797261         1.645077         2.281096
 H        -2.108494         3.982846         1.968680
 H        -0.743542         2.821953         2.186580
 H        -0.974740         4.757239         0.251611
 H         0.154490         3.257116         0.147043
 H        -2.168694         1.611016        -2.081415
