19
Iteration:  1916
 O        -0.477343         0.375094         0.421170
 C        -1.788933         0.996953         0.303961
 C        -3.187973         0.250592        -0.041871
 C        -3.462137         1.857066        -0.152418
 C        -2.590750         1.941492         1.150740
 C        -1.634882         3.117849         1.446130
 C        -0.680008         3.322033         0.229318
 O        -1.470200         3.145026        -0.982062
 C        -2.102219         1.957226        -0.897433
 H        -0.372343        -0.432950         1.040086
 H        -3.154693        -0.425274        -0.858793
 H        -3.614820        -0.172530         0.851308
 H        -4.463534         2.364020        -0.153410
 H        -3.059644         1.710440         2.079545
 H        -2.171009         4.066022         1.682197
 H        -1.036300         2.832424         2.248293
 H        -0.361942         4.282573         0.009020
 H         0.163048         2.540434         0.246274
 H        -2.005709         1.336653        -1.931670
