19
Iteration:  2898charge 0 multiplicity 1
 O        -0.603937         0.055217         0.324109
 C        -1.805141         0.937067         0.274321
 C        -3.165143         0.229675        -0.057262
 C        -3.433921         1.826096        -0.042294
 C        -2.456493         1.880390         1.248231
 C        -1.776500         3.211143         1.384229
 C        -0.778948         3.569907         0.332060
 O        -1.313149         3.211103        -1.017934
 C        -2.091041         1.982991        -0.889181
 H         0.289333         0.373646         0.576282
 H        -3.260036        -0.162338        -1.094179
 H        -3.591384        -0.362605         0.811801
 H        -4.337735         2.342445        -0.265045
 H        -2.908134         1.417339         2.042416
 H        -2.571453         4.000078         1.510418
 H        -1.166994         3.377816         2.245950
 H        -0.418467         4.563017         0.251833
 H         0.135595         2.877425         0.545449
 H        -2.012780         1.391238        -1.824336
