19
Iteration:  1021charge 0 multiplicity 1
 O        -0.661366         0.110648         0.513687
 C        -1.814450         0.814891         0.213940
 C        -3.253148         0.306377        -0.052453
 C        -3.397961         1.865842        -0.109646
 C        -2.462386         1.915049         1.214265
 C        -1.538079         3.118568         1.515600
 C        -0.873858         3.712011         0.198566
 O        -1.317866         3.162270        -1.094069
 C        -2.029365         1.879775        -0.962895
 H        -0.276030         0.539756         1.321706
 H        -3.546679        -0.249755        -0.938739
 H        -3.681915        -0.233419         0.812243
 H        -4.362069         2.457176        -0.227063
 H        -2.735224         1.259464         2.052306
 H        -1.998354         3.849389         2.164748
 H        -0.757508         2.729927         2.101653
 H        -1.043282         4.760763         0.166345
 H         0.159785         3.519966         0.283851
 H        -2.257982         1.375053        -1.963986
