19
Iteration:  3114charge 0 multiplicity 1
 O        -0.582338         0.094792         0.597220
 C        -1.761694         0.854813         0.161345
 C        -3.203654         0.289331        -0.172382
 C        -3.338008         1.862855        -0.038376
 C        -2.353675         1.874023         1.173817
 C        -1.674578         3.184940         1.508207
 C        -0.914080         3.636190         0.258601
 O        -1.379620         3.126927        -0.994743
 C        -2.145267         1.972140        -0.928942
 H        -0.292796        -0.207518        -0.309416
 H        -3.368865        -0.035062        -1.133325
 H        -3.831446        -0.207350         0.555515
 H        -4.118396         2.641096        -0.198118
 H        -2.515727         1.199407         2.044061
 H        -2.562018         3.865682         1.688671
 H        -0.985135         3.251435         2.429997
 H        -0.591191         4.654954        -0.010741
 H         0.094149         3.228143         0.412767
 H        -2.343383         1.694078        -1.952285
