19
Iteration:  1193charge 0 multiplicity 1
 O        -0.556286         0.216821         0.614449
 C        -1.843952         0.833981         0.193320
 C        -3.336282         0.381147        -0.055216
 C        -3.337155         1.926390        -0.157113
 C        -2.373014         1.862477         1.227626
 C        -1.600730         3.099940         1.489757
 C        -0.921113         3.575463         0.250852
 O        -1.339028         3.083533        -1.040617
 C        -2.068527         1.899476        -1.012470
 H         0.107759         0.082908        -0.096225
 H        -3.507360        -0.214704        -0.958478
 H        -3.880966        -0.066357         0.792714
 H        -4.280874         2.485165        -0.199263
 H        -2.738397         1.370415         2.124959
 H        -2.386702         3.802377         1.663429
 H        -0.840723         2.905174         2.352295
 H        -0.958693         4.642294         0.262863
 H         0.217614         3.397355         0.315263
 H        -2.234051         1.569013        -1.971719
