19
Iteration:   397charge 0 multiplicity 1
 O        -0.730860         0.013317         0.355585
 C        -1.829134         0.908142         0.199984
 C        -3.139872         0.302381         0.080526
 C        -3.411341         1.815396         0.053135
 C        -2.404221         1.933022         1.164708
 C        -1.820428         3.411838         1.336382
 C        -0.767066         3.586295         0.227689
 O        -1.191073         3.035035        -1.007340
 C        -2.044563         1.917580        -0.909561
 H         0.031526         0.523738         0.663432
 H        -3.374608        -0.426702        -0.748248
 H        -3.483342        -0.221580         1.014203
 H        -4.455247         2.342659         0.046668
 H        -2.883275         1.479736         2.141678
 H        -2.736723         4.031965         1.082886
 H        -1.449996         3.641242         2.423388
 H        -0.437354         4.585845         0.038809
 H        -0.022817         2.877722         0.552051
 H        -2.032398         1.614642        -1.923346
