19
Iteration:   163charge 0 multiplicity 1
 O        -0.619212         0.301018         0.619809
 C        -1.895971         0.797874         0.257783
 C        -3.365845         0.223958         0.025799
 C        -3.468377         1.786066        -0.133743
 C        -2.471941         2.024343         1.074908
 C        -1.468852         3.173854         1.463798
 C        -0.755415         3.677626         0.162625
 O        -1.273919         3.017940        -1.046023
 C        -2.072912         1.853105        -0.873784
 H        -0.091707         0.293816        -0.248612
 H        -3.654228        -0.368086        -0.895180
 H        -3.895774        -0.222720         0.958020
 H        -4.216123         2.332791        -0.492921
 H        -2.933232         1.624179         2.106656
 H        -2.000501         4.051328         1.950041
 H        -0.652758         2.724788         2.176166
 H        -1.042399         4.792397        -0.037813
 H         0.292658         3.498846         0.175407
 H        -2.122040         1.452070        -1.889338
