19
Iteration:  3452
 O        -0.646883         0.112093         0.383367
 C        -1.770705         0.886590         0.212763
 C        -3.154803         0.273921        -0.105158
 C        -3.349476         1.854118        -0.134456
 C        -2.586530         1.968712         1.159468
 C        -1.706431         3.074031         1.521440
 C        -0.820086         3.654804         0.316087
 O        -1.347037         3.150594        -0.972037
 C        -2.006995         1.892630        -0.892192
 H         0.174517         0.488759         0.653662
 H        -3.070731        -0.299992        -1.071527
 H        -3.664998        -0.292796         0.770907
 H        -4.324325         2.523045        -0.154448
 H        -3.102385         1.412997         1.988187
 H        -2.281495         3.933432         1.935057
 H        -1.006230         2.761935         2.245448
 H        -0.926878         4.747001         0.360059
 H         0.226815         3.328161         0.401007
 H        -1.983249         1.660021        -1.945560
