19
Iteration:  4519
 O        -0.617447         0.153226         0.347564
 C        -1.761341         0.885117         0.166196
 C        -3.105154         0.262324        -0.238545
 C        -3.374381         1.775295        -0.206215
 C        -2.529395         1.888726         1.170549
 C        -1.817477         3.109978         1.598564
 C        -0.827352         3.581513         0.422821
 O        -1.357308         3.267305        -0.896716
 C        -1.957352         1.981877        -0.890883
 H        -0.299977        -0.093399         1.176592
 H        -3.231603        -0.275131        -1.206147
 H        -3.658983        -0.337005         0.498882
 H        -4.293593         2.327959        -0.361914
 H        -3.042811         1.276857         1.850836
 H        -2.538796         3.921279         1.854634
 H        -1.142067         3.023316         2.441001
 H        -0.613223         4.670722         0.426151
 H         0.186896         3.028459         0.468896
 H        -1.897985         1.643647        -1.932508
