19
Iteration:  4230charge 0 multiplicity 1
 O        -0.550425         0.128147         0.361670
 C        -1.759040         0.876266         0.244672
 C        -3.071323         0.298952        -0.076538
 C        -3.455822         1.804962        -0.255384
 C        -2.549903         1.907697         1.214117
 C        -1.791924         3.183838         1.502944
 C        -0.819694         3.521054         0.386962
 O        -1.348119         3.258699        -0.987954
 C        -2.034552         1.978700        -0.890340
 H        -0.772708        -0.785475         0.712794
 H        -3.053244        -0.291913        -0.993384
 H        -3.581088        -0.136171         0.782150
 H        -4.461760         2.253129        -0.345144
 H        -2.934382         1.610557         2.150543
 H        -2.296192         4.175725         1.696352
 H        -1.160628         2.944990         2.416776
 H        -0.426383         4.556787         0.284899
 H         0.217511         2.947008         0.389520
 H        -1.964529         1.414351        -1.892341
