19
Iteration:   667
 O        -0.739001        -0.068362         0.588906
 C        -1.774489         0.848990         0.295692
 C        -3.171524         0.285781        -0.043875
 C        -3.259607         1.812890        -0.136318
 C        -2.413578         1.992311         1.212082
 C        -1.619750         3.260839         1.342522
 C        -0.760650         3.554740         0.109656
 O        -1.530426         3.251043        -1.006105
 C        -2.025777         1.904457        -0.874331
 H        -0.116717         0.380700         1.223545
 H        -3.390203        -0.047212        -1.066715
 H        -3.663683        -0.238100         0.786469
 H        -4.181402         2.361288        -0.309215
 H        -2.924883         1.635936         2.139408
 H        -2.318388         4.200026         1.451438
 H        -0.955714         3.295677         2.249134
 H        -0.510933         4.715183         0.006061
 H         0.216046         3.121363         0.016397
 H        -2.144625         1.449886        -1.979758
