19
Iteration:   198
 O        -0.694133         0.037316         0.450565
 C        -1.771036         0.900579         0.257958
 C        -3.202717         0.328705         0.067392
 C        -3.298388         1.906291         0.008468
 C        -2.461964         2.002513         1.224610
 C        -1.763605         3.340918         1.425544
 C        -0.885691         3.485150         0.162768
 O        -1.254212         2.996584        -1.160223
 C        -2.040647         1.894443        -0.871777
 H         0.089868         0.650882         0.304891
 H        -3.383472        -0.134588        -0.999062
 H        -3.576833        -0.209521         0.931110
 H        -4.195345         2.516622        -0.207976
 H        -2.822653         1.410393         2.189880
 H        -2.572824         4.099610         1.507205
 H        -1.141865         3.430006         2.394411
 H        -0.594012         4.620566         0.024426
 H         0.087850         3.035298         0.420081
 H        -2.227268         1.450697        -1.809285
