19
Iteration:  2934
 O        -0.629104        -0.001644         0.460176
 C        -1.734786         0.828932         0.164685
 C        -3.187842         0.291201        -0.114287
 C        -3.270435         1.898355        -0.051293
 C        -2.345265         1.873128         1.179349
 C        -1.700860         3.191955         1.485225
 C        -0.870055         3.666992         0.297858
 O        -1.446413         3.168438        -0.985530
 C        -2.122483         1.949648        -0.994419
 H        -0.310365         0.305812         1.357771
 H        -3.522721        -0.074374        -1.116487
 H        -3.581553        -0.369134         0.615625
 H        -4.076828         2.708133        -0.201164
 H        -2.793253         1.457436         2.152161
 H        -2.622236         3.919068         1.603888
 H        -1.017014         3.246507         2.363827
 H        -0.757868         4.780272         0.403132
 H         0.112933         3.134306         0.337056
 H        -2.040729         1.539806        -2.017345
