19
Iteration:  3889charge 0 multiplicity 1
 O        -0.690105         0.143409         0.501346
 C        -1.766442         0.882317         0.161805
 C        -3.205140         0.307486        -0.140447
 C        -3.372581         1.868667        -0.055711
 C        -2.390647         1.832365         1.150786
 C        -1.746195         3.129150         1.525761
 C        -0.866709         3.695045         0.277370
 O        -1.234681         3.016895        -0.989963
 C        -2.059894         1.971141        -0.928679
 H         0.180344         0.490017         0.779873
 H        -3.527320        -0.163477        -1.094446
 H        -3.787790        -0.128563         0.714404
 H        -4.294326         2.413746        -0.149437
 H        -2.701030         1.207754         2.019279
 H        -2.466670         3.881076         1.775971
 H        -1.049688         2.972308         2.341418
 H        -1.380675         4.685336         0.176445
 H         0.292994         3.805592         0.116357
 H        -2.172236         1.754398        -2.047756
