19
Iteration:  4389charge 0 multiplicity 1
 O        -0.546056         0.229050         0.509023
 C        -1.790640         0.878911         0.153952
 C        -3.133375         0.222859        -0.334481
 C        -3.349841         1.820545         0.005525
 C        -2.457046         1.806169         1.147682
 C        -1.805016         3.171761         1.433231
 C        -0.801915         3.520974         0.361515
 O        -1.340155         3.202101        -0.890911
 C        -2.087765         2.039152        -0.859780
 H        -0.843432        -0.749054         0.297195
 H        -3.256982        -0.128796        -1.405428
 H        -3.581019        -0.521492         0.371288
 H        -4.122685         2.589283        -0.160874
 H        -2.954038         1.313311         2.064468
 H        -2.397061         4.074024         1.218036
 H        -1.390475         3.144102         2.441804
 H        -0.753620         4.635324         0.454228
 H         0.228092         3.200637         0.524414
 H        -2.233158         1.752213        -1.875237
