19
Iteration:    41
 O        -0.808433        -0.114688         0.437070
 C        -1.818090         0.815329         0.258495
 C        -3.328772         0.455655         0.075138
 C        -3.296507         1.975401         0.000131
 C        -2.309226         1.952514         1.253959
 C        -1.462057         3.286986         1.328238
 C        -1.395773         3.824121        -0.029881
 O        -0.971859         2.855318        -0.875881
 C        -1.900928         1.825291        -0.906068
 H         0.052497         0.424252         0.546851
 H        -3.673324        -0.015246        -0.848964
 H        -3.819543        -0.037874         1.030688
 H        -4.078747         2.651776        -0.246154
 H        -2.690491         1.535007         2.301433
 H        -2.059729         4.010263         1.938905
 H        -0.443733         3.166763         1.841049
 H        -2.442288         4.301201        -0.423835
 H        -0.864735         4.726262        -0.224769
 H        -1.943681         1.465595        -1.944100
