19
Iteration:   544charge 0 multiplicity 1
 O        -0.651041         0.109398         0.580278
 C        -1.809854         0.822975         0.254427
 C        -3.231864         0.313869         0.038093
 C        -3.376017         1.910140        -0.072644
 C        -2.511603         1.963919         1.215739
 C        -1.673540         3.255193         1.434428
 C        -0.770251         3.640383         0.201838
 O        -1.288160         3.059749        -1.090412
 C        -2.067773         1.853413        -0.963855
 H        -0.205217        -0.128351        -0.292515
 H        -3.336756        -0.275837        -0.886418
 H        -3.646213        -0.185041         0.889735
 H        -4.290634         2.392151        -0.293823
 H        -2.848578         1.407251         2.136950
 H        -2.373339         4.098675         1.731529
 H        -0.952667         3.133589         2.254089
 H        -0.836535         4.715037        -0.127437
 H         0.203188         3.277295         0.218158
 H        -1.994072         1.464593        -2.052472
