19
Iteration:   153
 O        -0.627781         0.368227         0.634349
 C        -1.880307         0.799888         0.277508
 C        -3.357933         0.240444        -0.038087
 C        -3.430872         1.840315        -0.117112
 C        -2.480886         2.017578         1.209222
 C        -1.436278         3.126291         1.402481
 C        -0.846283         3.615536         0.157045
 O        -1.290043         3.049703        -1.051831
 C        -2.040595         1.778327        -0.941275
 H        -0.149983        -0.078487        -0.100124
 H        -3.587191        -0.373008        -0.986792
 H        -3.876882        -0.128035         0.894193
 H        -4.248085         2.350575        -0.451959
 H        -3.125070         1.980583         2.214669
 H        -1.770371         3.939984         2.093177
 H        -0.629063         2.563685         2.031268
 H        -1.044199         4.794834         0.078548
 H         0.238580         3.616107         0.130914
 H        -2.043607         1.353563        -1.911142
