19
Iteration:  1054charge 0 multiplicity 1
 O        -0.560838         0.153653         0.560756
 C        -1.873293         0.812416         0.238520
 C        -3.228514         0.362099        -0.097399
 C        -3.410406         1.930728        -0.112625
 C        -2.418201         1.875294         1.126137
 C        -1.533127         3.093064         1.511091
 C        -0.849042         3.629196         0.224169
 O        -1.415376         3.138392        -1.039285
 C        -2.077065         1.824793        -0.959565
 H        -0.380701         0.622479         1.344503
 H        -3.484952        -0.112712        -1.030029
 H        -3.745087        -0.050901         0.767164
 H        -4.288568         2.607066        -0.309184
 H        -2.696503         1.344000         2.067135
 H        -2.071344         3.905260         1.937108
 H        -0.794180         2.825887         2.105100
 H        -0.837716         4.684506         0.158140
 H         0.159392         3.353469         0.218570
 H        -2.164441         1.537597        -2.064917
