19
Iteration:  2780
 O        -0.583541         0.125961         0.483408
 C        -1.805926         0.848548         0.197043
 C        -3.122724         0.325629        -0.040051
 C        -3.308230         1.843949        -0.152463
 C        -2.503769         1.880183         1.111993
 C        -1.664004         3.125410         1.464596
 C        -0.782774         3.552413         0.264865
 O        -1.514114         3.268135        -0.923621
 C        -1.992290         1.970267        -0.929606
 H        -0.720313        -0.781236         0.463915
 H        -3.174226        -0.253285        -0.933030
 H        -3.662876        -0.101939         0.780920
 H        -4.169683         2.428697        -0.298441
 H        -2.998565         1.479445         2.097978
 H        -2.498471         3.883433         1.597516
 H        -1.242777         3.019192         2.444219
 H        -0.608385         4.679984         0.206280
 H         0.245011         3.095029         0.263915
 H        -2.047665         1.423314        -1.871658
