19
Iteration:  2433
 O        -0.553703         0.295498         0.476681
 C        -1.804916         0.875602         0.147692
 C        -3.135923         0.306344        -0.163929
 C        -3.390200         1.889780        -0.024690
 C        -2.481511         1.873574         1.251706
 C        -1.596741         3.167569         1.468874
 C        -0.871562         3.546054         0.240935
 O        -1.381962         3.101241        -0.961702
 C        -2.132150         1.876307        -0.910514
 H        -0.915157        -0.604349         0.809114
 H        -3.270931        -0.130767        -1.189960
 H        -3.667772        -0.465117         0.338105
 H        -4.093137         2.438997        -0.461056
 H        -2.953861         1.439881         2.170399
 H        -2.324864         3.891441         1.778430
 H        -0.858221         3.050251         2.224212
 H        -0.551989         4.632445         0.321272
 H         0.065903         3.039972         0.347329
 H        -2.099394         1.671022        -1.991473
