19
Iteration:  1259charge 0 multiplicity 1
 O        -0.660813         0.093237         0.515884
 C        -1.763162         0.837361         0.203864
 C        -3.163491         0.309607        -0.052335
 C        -3.322843         1.846016        -0.035252
 C        -2.427209         1.931336         1.199166
 C        -1.684014         3.242324         1.392011
 C        -0.827699         3.508841         0.237738
 O        -1.476918         3.244800        -0.994314
 C        -1.956557         1.934448        -0.953049
 H        -0.978340        -0.812661         0.443060
 H        -3.387885        -0.273321        -0.964560
 H        -3.534595        -0.256628         0.820530
 H        -4.136979         2.448544        -0.388505
 H        -2.782666         1.473334         2.127012
 H        -2.383910         4.059127         1.501757
 H        -0.989154         3.207426         2.344516
 H        -0.579063         4.528732         0.193752
 H         0.198732         3.043969         0.303615
 H        -2.081957         1.586888        -1.925743
