19
Iteration:  3436
 O        -0.560373         0.134119         0.364110
 C        -1.832927         0.894621         0.179291
 C        -3.204207         0.279886        -0.106584
 C        -3.386428         1.814434        -0.121996
 C        -2.475774         1.860609         1.204108
 C        -1.713235         3.177573         1.497259
 C        -0.855620         3.550165         0.344228
 O        -1.318972         3.189584        -0.951004
 C        -2.031083         1.936173        -0.932255
 H        -0.370179         0.607548         1.151875
 H        -3.518456        -0.157756        -1.035194
 H        -3.595471        -0.205875         0.721245
 H        -4.222402         2.249495        -0.538857
 H        -2.973674         1.532833         2.103670
 H        -2.389498         4.011938         1.855105
 H        -1.083455         3.055503         2.465733
 H        -0.630050         4.643281         0.258174
 H         0.220638         3.116410         0.373419
 H        -1.972846         1.529127        -2.034912
