19
Iteration:  4951charge 0 multiplicity 1
 O        -0.523097         0.274330         0.289113
 C        -1.781676         0.888108         0.104177
 C        -3.056701         0.203387        -0.322472
 C        -3.355135         1.758898        -0.301690
 C        -2.649141         1.826540         1.076758
 C        -1.911060         3.134875         1.627226
 C        -0.820412         3.468122         0.634844
 O        -1.289885         3.333532        -0.721920
 C        -1.950284         2.011723        -0.915276
 H        -0.574516        -0.655227         0.570030
 H        -3.107914        -0.287766        -1.337112
 H        -3.683246        -0.303070         0.460823
 H        -4.356697         2.244469        -0.491769
 H        -3.089800         1.303296         1.938479
 H        -2.565840         4.008294         1.750633
 H        -1.545723         2.831868         2.647374
 H        -0.491771         4.555003         0.529085
 H         0.111834         2.871670         0.737766
 H        -1.985618         1.946487        -2.018612
