19
Iteration:  4170
 O        -0.557131         0.171677         0.488738
 C        -1.804882         0.845905         0.174664
 C        -3.239949         0.242645        -0.126190
 C        -3.390841         1.834718        -0.094965
 C        -2.529213         1.865481         1.216681
 C        -1.788716         3.210628         1.420827
 C        -0.785133         3.511808         0.337875
 O        -1.285248         3.206123        -0.941987
 C        -2.036399         1.954711        -0.961924
 H         0.106061         0.666702         0.099115
 H        -3.369934        -0.264199        -1.090622
 H        -3.555971        -0.528604         0.599088
 H        -4.188766         2.559528        -0.212730
 H        -2.970259         1.379197         2.157732
 H        -2.364840         4.124983         1.569201
 H        -1.294542         2.984544         2.357034
 H        -0.620836         4.588731         0.496735
 H         0.121896         2.870091         0.374028
 H        -2.081067         1.709612        -1.993893
