19
Iteration:  1851
 O        -0.649701        -0.022429         0.299929
 C        -1.742512         0.860529         0.261555
 C        -3.205397         0.247214        -0.035015
 C        -3.310216         1.845172         0.007460
 C        -2.398188         1.944364         1.265032
 C        -1.788996         3.327987         1.427581
 C        -0.849469         3.623917         0.277254
 O        -1.321143         3.118052        -1.067326
 C        -2.043088         1.958114        -0.905323
 H        -0.370325         0.012425         1.181756
 H        -3.367042        -0.235197        -0.955421
 H        -3.582469        -0.195969         0.857990
 H        -4.078267         2.622205        -0.126924
 H        -2.946319         1.472824         2.073645
 H        -2.676293         4.032193         1.550771
 H        -1.259322         3.388662         2.320380
 H        -0.815193         4.643619         0.127758
 H         0.172085         3.198197         0.370608
 H        -2.083212         1.562594        -2.009355
