19
Iteration:  2534
 O        -0.566731         0.134512         0.317260
 C        -1.780155         0.845345         0.204240
 C        -3.187330         0.308676        -0.054368
 C        -3.378450         1.863356        -0.008686
 C        -2.466036         1.855542         1.278361
 C        -1.771843         3.233668         1.390375
 C        -0.810276         3.581453         0.320794
 O        -1.291936         3.143151        -0.997957
 C        -2.039264         1.969173        -0.938969
 H        -0.793000        -0.469837         1.002187
 H        -3.383413         0.032834        -1.105991
 H        -3.480218        -0.474413         0.622215
 H        -4.366176         2.319589        -0.009703
 H        -3.007713         1.369450         2.153903
 H        -2.646792         3.875996         1.419693
 H        -1.216460         3.377398         2.268276
 H        -0.769112         4.656172         0.266454
 H         0.180014         3.251317         0.618113
 H        -2.166289         1.461845        -1.947556
