19
Iteration:  2082charge 0 multiplicity 1
 O        -0.582177         0.241440         0.487778
 C        -1.779987         0.854541         0.239657
 C        -3.208917         0.270804        -0.111752
 C        -3.442368         1.780591        -0.056543
 C        -2.396664         1.967180         1.178679
 C        -1.613228         3.161032         1.486791
 C        -0.805466         3.585522         0.264358
 O        -1.388319         3.162349        -1.059002
 C        -2.107200         1.873761        -0.956158
 H        -0.543168        -0.318431         1.218609
 H        -3.413759        -0.156635        -1.076404
 H        -3.801472        -0.087625         0.720618
 H        -4.420053         2.179219        -0.318177
 H        -2.923856         1.509314         2.069145
 H        -2.111685         4.103046         1.899492
 H        -1.018002         2.709901         2.249740
 H        -0.685862         4.685583         0.278437
 H         0.219858         3.159379         0.427411
 H        -2.123656         1.566185        -2.170746
