19
Iteration:  4515charge 0 multiplicity 1
 O        -0.603149         0.160843         0.354612
 C        -1.748288         0.905476         0.176822
 C        -3.153178         0.271529        -0.235743
 C        -3.357389         1.769380        -0.183948
 C        -2.515418         1.845381         1.157727
 C        -1.830930         3.127034         1.609299
 C        -0.828195         3.572641         0.387868
 O        -1.331218         3.276177        -0.899039
 C        -1.972577         2.005201        -0.915884
 H        -0.408709        -0.268380         1.275646
 H        -3.117227        -0.103916        -1.273034
 H        -3.579468        -0.423453         0.504494
 H        -4.347627         2.242211        -0.409492
 H        -3.022614         1.211426         1.985941
 H        -2.543025         3.930511         1.859680
 H        -1.199333         2.994705         2.525808
 H        -0.631054         4.645436         0.400893
 H         0.074766         2.991490         0.528878
 H        -1.999493         1.564167        -1.943429
