19
Iteration:  4957charge 0 multiplicity 1
 O        -0.537043         0.266474         0.285311
 C        -1.714313         0.837963         0.148605
 C        -3.086725         0.196924        -0.398710
 C        -3.335809         1.776756        -0.270098
 C        -2.631017         1.832351         1.137560
 C        -1.925870         3.125708         1.608555
 C        -0.768413         3.515316         0.642161
 O        -1.311948         3.331150        -0.753634
 C        -2.009730         2.027464        -0.921252
 H        -0.505090        -0.557404         0.720257
 H        -3.254715        -0.324281        -1.315645
 H        -3.701204        -0.353012         0.288943
 H        -4.322620         2.068236        -0.557735
 H        -3.229060         1.224452         1.843905
 H        -2.577578         4.014701         1.676321
 H        -1.545669         3.032296         2.613983
 H        -0.392205         4.499353         0.646195
 H         0.083865         2.842775         0.926967
 H        -1.899419         1.982236        -2.008127
