19
Iteration:  2180
 O        -0.529037         0.231907         0.258026
 C        -1.840184         0.826741         0.124277
 C        -3.256159         0.261007         0.002995
 C        -3.366612         1.858899         0.023718
 C        -2.489582         1.963879         1.182391
 C        -1.815109         3.291012         1.395827
 C        -0.820706         3.559600         0.312346
 O        -1.218183         3.070451        -0.972772
 C        -2.049230         1.857604        -0.847756
 H        -0.539175        -0.452672         0.897600
 H        -3.505784        -0.382335        -0.850150
 H        -3.600183        -0.289321         0.899848
 H        -4.250783         2.496853        -0.120831
 H        -2.729637         1.346031         2.082869
 H        -2.580565         4.135590         1.614228
 H        -1.222087         3.234648         2.310627
 H        -0.679321         4.635842         0.121350
 H         0.109663         3.232979         0.774609
 H        -1.986713         1.509162        -1.926545
