19
Iteration:  1443charge 0 multiplicity 1
 O        -0.514505         0.112113         0.476899
 C        -1.759742         0.825213         0.290478
 C        -3.330144         0.370842        -0.084107
 C        -3.369693         1.986387        -0.086722
 C        -2.434730         1.898112         1.213725
 C        -1.694236         3.154241         1.433777
 C        -0.877328         3.623270         0.250862
 O        -1.347531         3.068991        -1.010650
 C        -1.999522         1.860080        -0.916044
 H        -0.203690        -0.287959        -0.309026
 H        -3.534952        -0.233475        -0.992328
 H        -4.014670         0.043540         0.723133
 H        -4.263377         2.556666        -0.284921
 H        -2.863564         1.610723         2.213646
 H        -2.528719         3.765491         1.840449
 H        -1.060052         3.150734         2.224676
 H        -1.039343         4.705499         0.165993
 H         0.196074         3.554648         0.389243
 H        -1.901575         1.341117        -1.946013
