19
Iteration:  2478
 O        -0.533733         0.286187         0.366371
 C        -1.787662         0.885426         0.137094
 C        -3.170831         0.256733         0.048786
 C        -3.354045         1.824546        -0.116504
 C        -2.528191         1.942442         1.145040
 C        -1.802444         3.249243         1.467724
 C        -0.693865         3.341411         0.330982
 O        -1.413388         3.212383        -0.941906
 C        -2.071158         1.940219        -0.926785
 H        -0.551216        -0.677744         0.491330
 H        -3.519817        -0.346132        -0.809294
 H        -3.396473        -0.235375         0.953167
 H        -4.150784         2.359963        -0.447226
 H        -2.725755         1.385033         2.084111
 H        -2.496293         4.052904         1.609054
 H        -1.293275         3.085578         2.370428
 H        -0.365920         4.363319         0.164016
 H         0.165842         2.705455         0.468584
 H        -2.211165         1.788921        -2.009792
