19
Iteration:  3377charge 0 multiplicity 1
 O        -0.516240         0.212622         0.298534
 C        -1.835073         0.928292         0.292467
 C        -3.068670         0.214908        -0.104175
 C        -3.425976         1.785867        -0.060393
 C        -2.516106         1.957357         1.180337
 C        -1.808098         3.324875         1.487322
 C        -0.727164         3.427930         0.364492
 O        -1.323009         3.173930        -0.977138
 C        -2.112936         1.959481        -0.891760
 H        -0.836060        -0.746737         0.103501
 H        -3.196150        -0.242012        -1.128531
 H        -3.570383        -0.399747         0.754607
 H        -4.438648         2.315180        -0.310987
 H        -3.062376         1.518720         2.043565
 H        -2.434890         4.179102         1.378420
 H        -1.367816         3.156333         2.488813
 H        -0.248147         4.403738         0.450556
 H        -0.025762         2.616430         0.461674
 H        -2.054199         1.568017        -1.899348
