19
Iteration:  3654
 O        -0.608714         0.090758         0.480714
 C        -1.775874         0.847789         0.142157
 C        -3.144947         0.348852        -0.044289
 C        -3.284548         1.831106        -0.203862
 C        -2.447192         1.922622         1.161145
 C        -1.685015         3.184798         1.555260
 C        -0.944125         3.580948         0.351123
 O        -1.434286         3.225233        -0.954345
 C        -1.922740         1.911630        -0.989277
 H        -0.734810        -0.902577         0.327588
 H        -3.441481        -0.330041        -0.942642
 H        -3.653816        -0.166954         0.781577
 H        -4.124510         2.457060        -0.410833
 H        -2.936124         1.484868         2.056060
 H        -2.381937         3.929972         1.709929
 H        -1.233298         3.006762         2.573240
 H        -0.838943         4.699427         0.192188
 H         0.062852         3.197462         0.409540
 H        -2.168825         1.767118        -2.080448
