19
Iteration:  3035
 O        -0.502411         0.255571         0.291261
 C        -1.765010         0.903091         0.217085
 C        -3.192901         0.354706        -0.079634
 C        -3.383565         1.807558        -0.048830
 C        -2.434214         1.859709         1.254017
 C        -1.833517         3.227731         1.439442
 C        -0.733339         3.353354         0.300320
 O        -1.373034         3.147202        -0.971867
 C        -2.107748         1.971051        -0.906077
 H        -0.443841        -0.174518         1.157760
 H        -3.273030        -0.117420        -1.022857
 H        -3.540586        -0.217021         0.767708
 H        -4.260295         2.385884        -0.200100
 H        -3.072047         1.558578         2.121897
 H        -2.672820         3.993267         1.291963
 H        -1.311977         3.574437         2.357875
 H        -0.355335         4.402925         0.243434
 H         0.011537         2.590305         0.632169
 H        -2.262566         1.563048        -1.879929
