19
Iteration:  3341
 O        -0.526394         0.209569         0.467545
 C        -1.782211         0.846651         0.157657
 C        -3.322999         0.277692        -0.064594
 C        -3.354786         1.838818        -0.122096
 C        -2.399316         1.884097         1.178242
 C        -1.786446         3.182590         1.525048
 C        -0.780294         3.557521         0.341282
 O        -1.331092         3.169320        -1.019210
 C        -2.056144         1.941295        -0.920194
 H        -0.180539        -0.114021        -0.445151
 H        -3.596769        -0.321153        -0.989233
 H        -3.703250        -0.311670         0.882675
 H        -4.314549         2.406503        -0.139271
 H        -2.875745         1.326004         2.048831
 H        -2.613948         3.926678         1.635523
 H        -1.331279         3.293836         2.463187
 H        -0.528019         4.667876         0.396578
 H         0.114342         2.993634         0.417964
 H        -2.056138         1.457677        -1.882970
