19
Iteration:  2813
 O        -0.549922         0.260784         0.513235
 C        -1.805834         0.913882         0.199523
 C        -3.162894         0.331918        -0.158675
 C        -3.360194         1.806801        -0.024154
 C        -2.420967         1.870457         1.171908
 C        -1.724617         3.196033         1.482233
 C        -0.798141         3.457676         0.294250
 O        -1.382118         3.136228        -0.999886
 C        -2.120549         1.983595        -0.942689
 H        -0.509475        -0.676855         0.167240
 H        -3.151070        -0.056875        -1.187383
 H        -3.775174        -0.223143         0.497062
 H        -4.276753         2.352109        -0.053484
 H        -2.841237         1.289293         2.070887
 H        -2.624702         3.865552         1.590655
 H        -1.196485         3.079196         2.414446
 H        -0.429475         4.509966         0.148313
 H         0.055327         2.881628         0.561865
 H        -2.213950         1.639080        -1.984167
