19
Iteration:  1036
 O        -0.659933         0.185724         0.573066
 C        -1.752997         0.919191         0.183075
 C        -3.338018         0.335352        -0.022213
 C        -3.275028         1.852733        -0.074882
 C        -2.418973         1.829906         1.160090
 C        -1.548438         2.979295         1.416881
 C        -0.890730         3.618859         0.194385
 O        -1.389764         3.135585        -1.050858
 C        -2.045454         1.947942        -0.961538
 H        -0.253133         0.505749         1.336016
 H        -3.529921        -0.260782        -0.968586
 H        -3.872059         0.001387         0.913664
 H        -4.076189         2.500199        -0.296124
 H        -3.041401         1.644589         2.027007
 H        -2.182366         3.795410         1.951085
 H        -0.697070         2.670612         2.337413
 H        -1.194022         4.760191         0.166404
 H         0.287863         3.533028         0.163350
 H        -2.009404         1.629787        -2.036859
