19
Iteration:   516
 O        -0.694023         0.101115         0.733264
 C        -1.782111         0.862726         0.334773
 C        -3.207293         0.306433        -0.143373
 C        -3.335176         1.830011        -0.105540
 C        -2.425444         1.940917         1.210544
 C        -1.581965         3.265801         1.341372
 C        -0.736090         3.511978         0.111934
 O        -1.601695         3.231784        -0.977464
 C        -2.004559         1.885649        -0.947538
 H        -0.433455        -0.469436        -0.022361
 H        -3.080685        -0.138115        -1.156854
 H        -3.813768        -0.344280         0.535833
 H        -4.267837         2.377742        -0.429162
 H        -2.642283         1.549172         2.200489
 H        -2.147387         4.182933         1.508237
 H        -0.823421         3.222753         2.150208
 H        -0.206870         4.544840         0.015325
 H         0.278772         2.853443         0.094119
 H        -1.873092         1.384393        -1.894714
