19
Iteration:  1474charge 0 multiplicity 1
 O        -0.636644         0.251112         0.376083
 C        -1.813879         0.890715         0.127969
 C        -3.137602         0.274266        -0.033493
 C        -3.459643         1.863863        -0.010646
 C        -2.487003         1.934875         1.250980
 C        -1.753074         3.234043         1.507585
 C        -0.742070         3.586029         0.320852
 O        -1.186782         2.980827        -1.014623
 C        -2.118028         1.926346        -0.949249
 H        -0.727892        -0.740659         0.080885
 H        -3.397618        -0.322630        -0.878689
 H        -3.577877        -0.211456         0.825338
 H        -4.415285         2.232032        -0.210400
 H        -2.746387         1.488156         2.228152
 H        -2.583227         4.114623         1.493697
 H        -1.193353         3.316384         2.405438
 H        -0.836968         4.647747        -0.116863
 H         0.317588         3.391990         0.578647
 H        -2.118699         1.579326        -2.052938
