19
Iteration:  1209
 O        -0.674645         0.223478         0.663080
 C        -1.767081         0.826347         0.196169
 C        -3.224542         0.319438        -0.091539
 C        -3.323425         1.894261        -0.063164
 C        -2.421545         1.855565         1.148494
 C        -1.610298         3.047007         1.465572
 C        -0.830720         3.658841         0.192517
 O        -1.403589         3.158892        -1.054960
 C        -2.058858         1.917124        -0.924684
 H        -0.404801        -0.443462        -0.079207
 H        -3.463023        -0.211953        -1.029077
 H        -3.731842        -0.187805         0.735252
 H        -4.150663         2.609203        -0.205529
 H        -2.998159         1.370419         1.980494
 H        -2.184693         3.864233         2.016061
 H        -0.882619         2.784034         2.159354
 H        -0.801546         4.809803         0.068982
 H         0.209220         3.372332         0.254949
 H        -2.101860         1.423426        -2.000126
