19
Iteration:  2400charge 0 multiplicity 1
 O        -0.613558         0.074352         0.354526
 C        -1.742245         0.847589         0.151238
 C        -3.174853         0.288719         0.022649
 C        -3.350783         1.836317        -0.075037
 C        -2.498455         1.872277         1.200225
 C        -1.728369         3.151251         1.459742
 C        -0.792565         3.656923         0.290353
 O        -1.402008         3.267087        -0.990323
 C        -1.986904         1.868048        -0.933426
 H        -0.841394        -0.264634         1.187429
 H        -3.351850        -0.131390        -0.982363
 H        -3.559523        -0.030295         0.970272
 H        -4.093399         2.426197        -0.432887
 H        -2.944226         1.387550         2.115961
 H        -2.539683         3.830226         1.643404
 H        -1.172603         3.219624         2.369978
 H        -0.796489         4.788029         0.272988
 H         0.211580         3.255362         0.334630
 H        -1.967857         1.529002        -1.998895
