19
Iteration:  4553charge 0 multiplicity 1
 O        -0.585838         0.134278         0.463868
 C        -1.715215         0.885792         0.155529
 C        -3.156844         0.288626        -0.229182
 C        -3.394446         1.762362        -0.251039
 C        -2.534630         1.883289         1.106949
 C        -1.778126         3.113283         1.638797
 C        -0.836125         3.576155         0.475571
 O        -1.405020         3.257609        -0.875623
 C        -1.951703         1.933293        -0.958865
 H         0.016781         0.524506        -0.248713
 H        -3.394635        -0.161154        -1.212598
 H        -3.779812        -0.117260         0.593525
 H        -4.253574         2.363563        -0.471347
 H        -3.008415         1.343477         1.916476
 H        -2.531542         3.847621         1.985450
 H        -1.148812         2.804476         2.477937
 H        -0.639255         4.668452         0.516677
 H         0.179528         3.034455         0.509818
 H        -1.780715         1.834072        -2.022119
