19
Iteration:  2826
 O        -0.595829         0.304303         0.476223
 C        -1.745314         0.884928         0.165861
 C        -3.130086         0.234726        -0.170904
 C        -3.424974         1.937648        -0.019851
 C        -2.493205         1.826481         1.253176
 C        -1.784004         3.165221         1.409284
 C        -0.748121         3.442081         0.322243
 O        -1.326731         3.134538        -0.986661
 C        -2.108894         1.960870        -0.896702
 H        -0.493094        -0.417013        -0.137248
 H        -3.349727        -0.316764        -1.117752
 H        -3.328081        -0.315700         0.709751
 H        -4.412087         2.510478        -0.197740
 H        -2.844785         1.370614         2.298169
 H        -2.330289         4.098299         1.417149
 H        -1.206786         3.291622         2.377898
 H        -0.602171         4.632254         0.414310
 H         0.255000         2.919260         0.229317
 H        -2.308115         1.514731        -1.875980
