19
Iteration:   705charge 0 multiplicity 1
 O        -0.679772         0.158770         0.628460
 C        -1.713611         0.917323         0.202427
 C        -3.165813         0.282696        -0.005182
 C        -3.401352         1.798011        -0.036539
 C        -2.496052         1.936293         1.195424
 C        -1.611652         3.246536         1.391235
 C        -0.747485         3.394856         0.128767
 O        -1.400027         3.163405        -1.024987
 C        -2.139663         1.977824        -1.009958
 H         0.050537         0.740361         1.022091
 H        -3.476344        -0.070715        -0.991526
 H        -3.593339        -0.423100         0.712272
 H        -4.336197         2.356622        -0.282682
 H        -2.964586         1.508885         2.061969
 H        -2.129933         4.116593         1.501980
 H        -0.996068         3.077237         2.262682
 H        -0.357711         4.343590         0.142895
 H         0.065818         2.556161         0.202833
 H        -2.280693         1.723557        -1.976113
