19
Iteration:  2669
 O        -0.540552         0.221197         0.286625
 C        -1.774895         0.965827         0.253186
 C        -3.076071         0.330864        -0.085162
 C        -3.446882         1.788817        -0.100892
 C        -2.551428         1.936279         1.183880
 C        -1.794591         3.291462         1.510841
 C        -0.711975         3.421382         0.330868
 O        -1.371377         3.137442        -0.922465
 C        -2.097651         1.899868        -0.919733
 H        -0.881107        -0.710960         0.506286
 H        -3.141811        -0.167537        -1.003757
 H        -3.406052        -0.281325         0.764552
 H        -4.455647         2.185131        -0.351508
 H        -2.859912         1.514429         2.212242
 H        -2.547181         4.114116         1.596499
 H        -1.249584         3.223497         2.399184
 H        -0.197012         4.351293         0.069795
 H         0.140542         2.706160         0.542272
 H        -1.965949         1.450849        -1.936491
