19
Iteration:  2133charge 0 multiplicity 1
 O        -0.521340         0.231753         0.378967
 C        -1.786045         0.903610         0.217499
 C        -3.148298         0.232695        -0.061766
 C        -3.393119         1.831340        -0.018098
 C        -2.479621         1.989368         1.194448
 C        -1.759409         3.296031         1.389659
 C        -0.749277         3.382915         0.270431
 O        -1.438164         3.139748        -0.944417
 C        -2.067657         1.929720        -0.956861
 H        -0.501862        -0.516340         0.989193
 H        -3.212249        -0.178402        -1.103023
 H        -3.642556        -0.478072         0.649187
 H        -4.305153         2.514285         0.016847
 H        -3.032431         1.606809         2.052378
 H        -2.383496         4.147407         1.495226
 H        -1.205309         3.284203         2.392887
 H        -0.140643         4.220193         0.095845
 H        -0.108857         2.602591         0.649041
 H        -2.110931         1.798895        -1.915256
