19
Iteration:   852
 O        -0.641374         0.284355         0.643194
 C        -1.811375         0.892495         0.260420
 C        -3.195175         0.276817        -0.092887
 C        -3.423397         1.792711        -0.057371
 C        -2.569570         1.979434         1.198437
 C        -1.556616         3.094478         1.394490
 C        -0.700161         3.457595         0.187198
 O        -1.454528         3.185365        -1.015190
 C        -2.019481         1.939253        -0.998307
 H        -0.560548        -0.426515        -0.024249
 H        -3.241590        -0.159111        -1.130260
 H        -3.645215        -0.290618         0.745322
 H        -4.277187         2.453857        -0.247591
 H        -2.814466         1.494075         2.210805
 H        -2.029148         3.996367         1.821892
 H        -0.939823         2.787756         2.162316
 H        -0.527366         4.611279         0.121657
 H         0.313112         3.147957         0.266371
 H        -2.038942         1.411041        -1.966747
