19
Iteration:   947
 O        -0.678819        -0.027566         0.408683
 C        -1.769312         0.830944         0.084911
 C        -3.183891         0.365933         0.051808
 C        -3.339524         1.890266         0.025032
 C        -2.367521         1.897290         1.248749
 C        -1.883728         3.364845         1.362982
 C        -0.776405         3.640617         0.278616
 O        -1.303360         3.055760        -0.949766
 C        -2.005868         1.904682        -0.914317
 H        -0.169405         0.061978        -0.371194
 H        -3.464836        -0.219983        -0.886847
 H        -3.627126        -0.180450         0.906362
 H        -4.138158         2.457947        -0.447964
 H        -2.760714         1.337768         2.073093
 H        -2.675032         4.168432         1.306708
 H        -1.409965         3.560569         2.464664
 H        -0.667977         4.771637         0.037457
 H         0.237875         3.101361         0.528579
 H        -2.289536         1.472543        -1.896355
