19
Iteration:  1060
 O        -0.586605         0.139593         0.534460
 C        -1.827364         0.848365         0.192777
 C        -3.252926         0.300987        -0.134368
 C        -3.391344         1.861158        -0.055732
 C        -2.446775         1.921240         1.171379
 C        -1.560215         3.164300         1.527016
 C        -0.808776         3.635815         0.223675
 O        -1.414810         3.120254        -1.057467
 C        -2.086026         1.853215        -0.957400
 H        -0.264671         0.558052         1.379642
 H        -3.427760        -0.217785        -1.103020
 H        -3.926855        -0.005000         0.708485
 H        -4.230423         2.476510        -0.383710
 H        -2.822474         1.463343         2.101571
 H        -2.076884         4.002726         2.102257
 H        -0.686742         2.722670         2.341471
 H        -0.781970         4.768995         0.056004
 H         0.280427         3.198572         0.224903
 H        -2.160026         1.574614        -1.969124
