19
Iteration:   690charge 0 multiplicity 1
 O        -0.695553         0.043582         0.629489
 C        -1.828335         0.903132         0.313960
 C        -3.078047         0.292127        -0.163634
 C        -3.369777         1.829919        -0.036062
 C        -2.454286         2.012257         1.227868
 C        -1.603386         3.247019         1.396341
 C        -0.698204         3.407015         0.160854
 O        -1.521658         3.224770        -1.132640
 C        -2.124320         1.954140        -0.915540
 H        -0.035051         0.474134         1.140927
 H        -2.944066        -0.229016        -1.117029
 H        -3.573558        -0.220538         0.668885
 H        -4.398534         2.248963        -0.178418
 H        -2.808844         1.668782         2.210101
 H        -2.315827         4.122658         1.624405
 H        -0.916072         3.149460         2.291079
 H        -0.229033         4.451956         0.032334
 H         0.138165         2.724729         0.173518
 H        -2.175763         1.295285        -1.898379
