19
Iteration:  3562
 O        -0.542951         0.180521         0.247604
 C        -1.780433         0.865184         0.235227
 C        -3.199838         0.216606        -0.074484
 C        -3.363905         1.819842        -0.188569
 C        -2.550552         1.923321         1.188573
 C        -1.860147         3.240945         1.493693
 C        -0.664138         3.470612         0.407181
 O        -1.363989         3.205200        -0.872206
 C        -2.057781         1.932737        -0.949870
 H         0.007204         0.127942         1.040730
 H        -3.291424        -0.384597        -0.947942
 H        -3.719966        -0.302323         0.751575
 H        -4.150150         2.612319        -0.238519
 H        -3.030088         1.463749         2.081017
 H        -2.503787         4.120581         1.295441
 H        -1.562226         3.378197         2.507818
 H        -0.345500         4.501402         0.457605
 H         0.228209         2.803653         0.349510
 H        -1.997528         1.604019        -1.946828
