19
Iteration:  1823charge 0 multiplicity 1
 O        -0.680181        -0.147553         0.254006
 C        -1.714903         0.876468         0.264198
 C        -3.178711         0.348244         0.004089
 C        -3.305495         1.817925        -0.055356
 C        -2.349135         2.008130         1.233211
 C        -1.815972         3.373299         1.403849
 C        -0.858172         3.676310         0.302941
 O        -1.384246         3.092906        -0.968934
 C        -2.004154         1.885447        -0.883108
 H        -0.004781         0.039906         0.889254
 H        -3.520107        -0.206375        -0.950084
 H        -3.668840        -0.171423         0.919170
 H        -4.121722         2.451875        -0.492768
 H        -2.866490         1.561637         2.126139
 H        -2.710721         3.995798         1.462438
 H        -1.229614         3.455441         2.426877
 H        -0.856236         4.812817         0.017264
 H         0.141179         3.238438         0.368582
 H        -2.010107         1.581384        -1.866289
