19
Iteration:   958charge 0 multiplicity 1
 O        -0.678445        -0.066372         0.382330
 C        -1.726618         0.818078         0.237470
 C        -3.253229         0.386281         0.068375
 C        -3.250741         1.919110        -0.054669
 C        -2.351731         1.893826         1.199458
 C        -1.871086         3.305406         1.379302
 C        -0.897796         3.621384         0.285845
 O        -1.234432         3.090367        -1.004226
 C        -2.086980         1.907001        -0.939639
 H         0.068751         0.142291        -0.180273
 H        -3.410409        -0.270254        -0.831726
 H        -3.730081         0.046113         1.009151
 H        -4.182561         2.489690         0.021416
 H        -2.595444         1.436745         2.138456
 H        -2.749049         4.013907         1.271666
 H        -1.294151         3.449888         2.430210
 H        -0.848481         4.768725         0.116655
 H         0.199775         3.337581         0.599934
 H        -2.189500         1.702020        -2.035335
