19
Iteration:  3695
 O        -0.629513         0.020912         0.536289
 C        -1.789048         0.778024         0.241434
 C        -3.164463         0.254157        -0.258528
 C        -3.320651         1.842152         0.015963
 C        -2.424505         1.843767         1.259806
 C        -1.760222         3.285517         1.429175
 C        -0.839014         3.610440         0.246134
 O        -1.320063         3.202911        -0.942596
 C        -2.063917         2.031017        -0.949200
 H        -0.265558        -0.198229        -0.363807
 H        -3.267362        -0.128612        -1.282084
 H        -3.681641        -0.462878         0.350608
 H        -4.231248         2.320809        -0.202078
 H        -2.850254         1.416769         2.193904
 H        -2.648577         4.073964         1.375053
 H        -1.247511         3.581339         2.373186
 H        -0.889235         4.693887         0.452783
 H         0.283839         3.436562         0.426696
 H        -2.260987         1.666024        -1.925971
