19
Iteration:  2915charge 0 multiplicity 1
 O        -0.710079         0.014969         0.388455
 C        -1.732927         0.869947         0.136110
 C        -3.105737         0.279539        -0.122963
 C        -3.402805         1.767753        -0.007549
 C        -2.408225         1.889382         1.205229
 C        -1.723881         3.319011         1.474727
 C        -0.788469         3.594580         0.263204
 O        -1.347786         3.173912        -0.957938
 C        -2.075533         1.964844        -0.926728
 H        -0.268224         0.483273         1.090222
 H        -3.190923        -0.227298        -1.076215
 H        -3.528789        -0.316844         0.696112
 H        -4.439943         2.227468        -0.039188
 H        -2.692747         1.430191         2.245371
 H        -2.502569         4.061778         1.586730
 H        -1.287495         3.160676         2.502081
 H        -0.763344         4.722181         0.092069
 H         0.157808         3.133260         0.423776
 H        -2.303886         1.803145        -1.976370
