19
Iteration:  4202
 O        -0.594599         0.262782         0.554465
 C        -1.774712         0.902100         0.149357
 C        -3.157353         0.305441        -0.189028
 C        -3.400272         1.866052        -0.109278
 C        -2.407187         1.826511         1.216490
 C        -1.782072         3.169716         1.470662
 C        -0.828019         3.477858         0.353852
 O        -1.364430         3.157155        -0.931119
 C        -2.042381         1.931590        -0.973604
 H        -0.416197        -0.509990        -0.107648
 H        -3.251491        -0.030059        -1.248176
 H        -3.606245        -0.437211         0.512921
 H        -4.199962         2.603462        -0.172336
 H        -2.728825         1.377531         2.212733
 H        -2.477593         3.988284         1.489738
 H        -1.204331         3.170232         2.377013
 H        -0.585691         4.527370         0.199006
 H         0.106430         3.004928         0.417789
 H        -2.184978         1.567851        -1.963033
