19
Iteration:  2345
 O        -0.573305         0.210104         0.257458
 C        -1.800747         0.855378         0.247557
 C        -3.190826         0.317251        -0.051004
 C        -3.348666         1.805085         0.012016
 C        -2.459916         1.834240         1.208993
 C        -1.880777         3.263087         1.358870
 C        -0.781565         3.465660         0.296976
 O        -1.268001         3.126955        -0.946410
 C        -2.065597         2.026669        -0.883600
 H        -0.397569        -0.174810         1.152370
 H        -3.349598        -0.304508        -1.017995
 H        -3.825890        -0.255153         0.698221
 H        -4.159497         2.434098         0.005193
 H        -2.771003         1.423090         2.209073
 H        -2.628295         4.090753         1.400780
 H        -1.257932         3.369023         2.221269
 H        -0.461174         4.554986         0.137471
 H         0.173408         2.915103         0.503057
 H        -2.118263         1.475544        -1.867701
