19
Iteration:  3463
 O        -0.644502         0.026424         0.434263
 C        -1.806382         0.938125         0.277815
 C        -3.107316         0.328993        -0.116052
 C        -3.349052         1.829992        -0.180313
 C        -2.523439         1.854583         1.176353
 C        -1.669407         3.137467         1.549021
 C        -0.877706         3.676637         0.304953
 O        -1.329691         3.132235        -0.932118
 C        -2.049735         1.967465        -0.976766
 H        -0.047173         0.699744         0.146355
 H        -3.096846        -0.275042        -1.073708
 H        -3.793581        -0.196910         0.658624
 H        -4.399928         2.342988        -0.459528
 H        -3.087252         1.472914         2.075315
 H        -2.205682         3.923625         2.129780
 H        -1.026876         2.712115         2.271650
 H        -0.871469         4.772833         0.151316
 H         0.211408         3.457131         0.312464
 H        -2.097541         1.473725        -1.959334
