19
Iteration:  4357charge 0 multiplicity 1
 O        -0.641753         0.116024         0.452123
 C        -1.756082         0.925226         0.206565
 C        -3.104480         0.232614        -0.139749
 C        -3.289411         1.790773        -0.149724
 C        -2.491058         1.850322         1.144591
 C        -1.831409         3.210442         1.569622
 C        -0.862297         3.475182         0.374016
 O        -1.397908         3.284259        -0.965434
 C        -1.970746         2.000867        -0.953346
 H        -0.166780         0.052675        -0.336289
 H        -3.316922        -0.340014        -1.096106
 H        -3.596990        -0.139694         0.779587
 H        -4.144571         2.474653        -0.353071
 H        -3.018345         1.359705         2.067841
 H        -2.452337         4.128558         1.822344
 H        -1.121243         3.055053         2.426163
 H        -0.481711         4.517677         0.497085
 H        -0.024811         2.762590         0.460060
 H        -1.976176         1.629793        -1.971478
