19
Iteration:  2993
 O        -0.599641         0.208360         0.368362
 C        -1.772084         0.906907         0.172181
 C        -3.152266         0.291478        -0.116312
 C        -3.431406         1.790069        -0.112923
 C        -2.446968         1.909982         1.208110
 C        -1.642448         3.244400         1.495642
 C        -0.785925         3.564370         0.325715
 O        -1.361426         3.056575        -0.917239
 C        -2.167371         1.928453        -0.988119
 H        -0.322849         0.423046         1.218105
 H        -3.490845        -0.060158        -1.040823
 H        -3.701105        -0.167329         0.738748
 H        -4.444340         2.074970        -0.237907
 H        -2.760899         1.298909         2.161669
 H        -2.279932         4.008114         1.838523
 H        -1.074989         3.016892         2.454802
 H        -0.525619         4.646484         0.164116
 H         0.163591         3.093879         0.334542
 H        -2.002443         1.524426        -1.964606
