19
Iteration:   846charge 0 multiplicity 1
 O        -0.692372         0.232560         0.616993
 C        -1.777695         0.919676         0.296658
 C        -3.175430         0.316223        -0.089533
 C        -3.384140         1.800414        -0.052130
 C        -2.525152         1.992336         1.215319
 C        -1.603634         3.096999         1.396888
 C        -0.755570         3.523807         0.187301
 O        -1.444914         3.181325        -1.033061
 C        -2.014718         1.883074        -0.974424
 H        -0.504755        -0.421050        -0.161232
 H        -3.171237        -0.052450        -1.094092
 H        -3.567448        -0.394028         0.640913
 H        -4.292429         2.372464        -0.318043
 H        -2.798560         1.607175         2.160768
 H        -2.116112         3.980163         1.834709
 H        -0.881424         2.659372         2.237027
 H        -0.434086         4.502027         0.081724
 H         0.308949         3.025664         0.239466
 H        -2.117081         1.444466        -2.011944
