19
Iteration:  3902charge 0 multiplicity 1
 O        -0.630870         0.143993         0.521829
 C        -1.841177         0.854467         0.103199
 C        -3.206212         0.307919        -0.143722
 C        -3.414411         1.887405        -0.057115
 C        -2.472041         1.811287         1.194209
 C        -1.624486         3.142412         1.522291
 C        -0.869415         3.759111         0.278761
 O        -1.190225         3.023591        -0.967576
 C        -2.129384         1.893264        -0.951644
 H        -0.084070         0.950160         0.341168
 H        -3.256761        -0.121175        -1.183016
 H        -3.567122        -0.362912         0.600393
 H        -4.336481         2.374185        -0.300141
 H        -2.887484         1.305457         2.126004
 H        -2.433691         3.865012         1.783659
 H        -1.100166         3.103679         2.450383
 H        -0.985038         4.881144         0.002485
 H         0.230465         3.670796         0.640695
 H        -2.350332         1.497384        -1.974912
