19
Iteration:   252
 O        -0.715652        -0.006018         0.399565
 C        -1.793671         0.889376         0.223349
 C        -3.155675         0.287463         0.107319
 C        -3.424616         1.774715        -0.020179
 C        -2.381489         2.003897         1.194039
 C        -1.759914         3.423560         1.351289
 C        -0.724442         3.496927         0.240933
 O        -1.294442         3.129797        -1.064428
 C        -2.089372         1.898715        -0.977669
 H        -0.170733         0.395800         1.157036
 H        -3.383832        -0.556214        -0.686168
 H        -3.505952         0.022025         1.117257
 H        -4.398288         2.218523        -0.097718
 H        -2.906235         1.639826         2.185265
 H        -2.640467         4.151186         1.311275
 H        -1.186560         3.513512         2.405643
 H        -0.462640         4.609434        -0.024678
 H         0.202087         3.013415         0.481696
 H        -2.034219         1.436066        -1.947475
