19
Iteration:  3567charge 0 multiplicity 1
 O        -0.527904         0.218709         0.263950
 C        -1.782321         0.847560         0.200613
 C        -3.206959         0.238345        -0.062112
 C        -3.355675         1.828692        -0.172446
 C        -2.545416         1.896682         1.198277
 C        -1.864689         3.256262         1.476165
 C        -0.652148         3.436001         0.402961
 O        -1.351745         3.219920        -0.875786
 C        -2.060367         1.916229        -0.951890
 H        -0.032345         0.264835         1.094197
 H        -3.446747        -0.207584        -1.153390
 H        -3.640527        -0.178031         0.862499
 H        -4.265892         2.423193        -0.219081
 H        -3.059352         1.443886         2.047722
 H        -2.550609         4.075653         1.219313
 H        -1.589546         3.200688         2.603406
 H        -0.337560         4.508648         0.497218
 H         0.156523         2.715987         0.459115
 H        -2.142256         1.427378        -2.022722
