19
Iteration:  3103charge 0 multiplicity 1
 O        -0.610909         0.153662         0.515100
 C        -1.712443         0.833367         0.180294
 C        -3.258998         0.369905        -0.103375
 C        -3.258341         1.894276        -0.018267
 C        -2.339934         1.820838         1.188019
 C        -1.739835         3.186753         1.501861
 C        -0.936763         3.598082         0.256672
 O        -1.392396         3.165725        -1.020658
 C        -2.036943         1.910721        -0.976937
 H        -0.329213        -0.604321        -0.119514
 H        -3.425785        -0.042589        -1.038890
 H        -3.622516        -0.268418         0.691767
 H        -4.228310         2.400757        -0.065079
 H        -2.928867         1.495604         2.080222
 H        -2.477326         3.975000         1.740316
 H        -1.115274         3.068929         2.466442
 H        -0.691865         4.669885         0.271225
 H        -0.071919         2.977609         0.409158
 H        -2.250757         1.581218        -1.980071
