19
Iteration:   884
 O        -0.550899         0.449162         0.620387
 C        -1.841858         0.906185         0.185365
 C        -3.260705         0.330478        -0.009684
 C        -3.406515         1.807903        -0.076620
 C        -2.418389         1.905709         1.115238
 C        -1.630712         3.149657         1.456683
 C        -0.676375         3.322743         0.280819
 O        -1.442630         3.133819        -0.998725
 C        -2.112643         1.915484        -1.094610
 H        -0.362716        -0.438226         0.340555
 H        -3.508689        -0.239121        -0.957768
 H        -3.863913        -0.184634         0.762788
 H        -4.242632         2.470336        -0.282579
 H        -2.719651         1.380025         2.083935
 H        -2.273171         3.960633         1.821461
 H        -1.001692         2.863487         2.271591
 H        -0.427290         4.413574         0.170074
 H         0.026673         2.483143         0.395080
 H        -2.162009         1.646585        -2.130416
