19
Iteration:  4117charge 0 multiplicity 1
 O        -0.603488         0.077926         0.338226
 C        -1.760097         0.782695         0.129686
 C        -3.159394         0.261313        -0.084663
 C        -3.363243         1.812377        -0.063338
 C        -2.470639         1.894340         1.128895
 C        -1.807322         3.271525         1.414037
 C        -0.804587         3.616532         0.355021
 O        -1.356124         3.218827        -0.914378
 C        -1.974317         1.934607        -0.872034
 H        -0.227461         0.372318         1.121128
 H        -3.597044        -0.068978        -1.028684
 H        -3.676585        -0.179782         0.752926
 H        -4.268712         2.396915        -0.130044
 H        -2.880701         1.547635         2.080578
 H        -2.694517         3.952469         1.489121
 H        -1.531130         3.145112         2.492270
 H        -0.255936         4.543434         0.430991
 H        -0.010446         2.773243         0.543847
 H        -2.021480         1.613836        -1.929772
