19
Iteration:  1345
 O        -0.511496         0.304620         0.365628
 C        -1.817692         0.896193         0.181401
 C        -3.222895         0.270467        -0.009685
 C        -3.351034         1.882483        -0.051437
 C        -2.519725         1.956488         1.212460
 C        -1.758305         3.235789         1.428312
 C        -0.712585         3.409407         0.249801
 O        -1.321405         3.066712        -0.958444
 C        -2.113296         1.918082        -0.947158
 H        -0.743474        -0.460843         0.863174
 H        -3.579985        -0.314699        -0.885838
 H        -3.604557        -0.036849         0.991167
 H        -4.328083         2.269853        -0.038323
 H        -3.083035         1.487919         2.057219
 H        -2.372195         4.120613         1.455856
 H        -1.243243         3.246059         2.417055
 H        -0.325879         4.385668         0.029469
 H         0.082461         2.709372         0.546131
 H        -2.119238         1.558654        -2.017406
