19
Iteration:   141
 O        -0.615597         0.352554         0.676907
 C        -1.860687         0.929070         0.318128
 C        -3.271039         0.372253        -0.014205
 C        -3.350631         1.899108        -0.139948
 C        -2.537120         1.956949         1.198482
 C        -1.457957         2.998272         1.422623
 C        -0.866900         3.652842         0.103856
 O        -1.349894         2.975730        -1.091242
 C        -2.060505         1.810993        -0.942844
 H        -0.451488        -0.342908         0.054496
 H        -3.308544        -0.166959        -0.990369
 H        -3.867838        -0.208328         0.775773
 H        -4.196412         2.426214        -0.268771
 H        -3.014275         1.435897         2.129168
 H        -1.798412         3.839645         2.081661
 H        -0.574105         2.461796         1.939545
 H        -1.204589         4.762895        -0.001822
 H         0.193612         3.549386         0.167925
 H        -2.071243         1.288744        -1.900845
