19
Iteration:  2341
 O        -0.577063         0.241525         0.262004
 C        -1.807772         0.867251         0.256333
 C        -3.188078         0.315422        -0.030451
 C        -3.352116         1.796382        -0.014837
 C        -2.436378         1.818350         1.206730
 C        -1.884137         3.256048         1.367300
 C        -0.751619         3.478812         0.299914
 O        -1.262678         3.133307        -0.952939
 C        -2.090506         1.992015        -0.901295
 H        -0.385151        -0.214552         1.115890
 H        -3.314717        -0.240503        -0.928192
 H        -3.901928        -0.170365         0.621740
 H        -4.307988         2.453707        -0.018623
 H        -2.773847         1.392354         2.140299
 H        -2.639135         4.001002         1.400858
 H        -1.237172         3.325843         2.308995
 H        -0.398220         4.487050         0.131690
 H         0.117298         2.895532         0.598762
 H        -2.188170         1.511938        -1.825393
