19
Iteration:  4306charge 0 multiplicity 1
 O        -0.625506         0.185859         0.356866
 C        -1.845748         0.926807         0.152278
 C        -3.126392         0.224407        -0.192317
 C        -3.397522         1.877636        -0.031544
 C        -2.483797         1.828737         1.231610
 C        -1.794212         3.186446         1.511388
 C        -0.833087         3.557836         0.371039
 O        -1.240447         3.150782        -0.957161
 C        -2.071991         1.920159        -0.949681
 H        -0.153198         0.768845         1.025822
 H        -3.035562        -0.113341        -1.211268
 H        -3.389828        -0.493278         0.564124
 H        -4.347635         2.268688        -0.366441
 H        -2.917375         1.338970         2.092636
 H        -2.427542         4.044927         1.723346
 H        -1.190160         3.314804         2.451665
 H        -0.571725         4.620090         0.407090
 H         0.032505         2.816066         0.513526
 H        -2.110254         1.509276        -2.009789
