19
Iteration:  4736charge 0 multiplicity 1
 O        -0.618243         0.108818         0.389231
 C        -1.710079         0.912208         0.183605
 C        -3.067798         0.307032        -0.269071
 C        -3.337533         1.768991        -0.265219
 C        -2.609811         1.858465         1.042972
 C        -1.831288         3.101183         1.560527
 C        -0.817609         3.523687         0.502266
 O        -1.432494         3.305691        -0.709385
 C        -1.970227         2.008784        -0.961472
 H         0.130551         0.464135        -0.018593
 H        -3.112487        -0.174616        -1.240533
 H        -3.425969        -0.292887         0.547734
 H        -4.138327         2.391589        -0.649290
 H        -3.195519         1.281155         1.835042
 H        -2.441933         3.972700         1.860297
 H        -1.403054         2.584962         2.436005
 H        -0.505479         4.582994         0.606387
 H         0.096442         2.939777         0.858952
 H        -1.665222         1.585859        -1.927199
