19
Iteration:   854
 O        -0.620635         0.298511         0.654507
 C        -1.833453         0.896465         0.243267
 C        -3.198733         0.263053        -0.095682
 C        -3.432894         1.798998        -0.066513
 C        -2.568010         1.959070         1.187902
 C        -1.543069         3.104054         1.397421
 C        -0.684682         3.451840         0.186201
 O        -1.450833         3.186769        -1.011495
 C        -2.032931         1.950266        -0.983346
 H        -0.527399        -0.488206        -0.006131
 H        -3.291726        -0.209732        -1.066468
 H        -3.680071        -0.258186         0.742690
 H        -4.314408         2.453810        -0.245534
 H        -2.872404         1.484483         2.163607
 H        -2.022552         4.032286         1.812306
 H        -0.898311         2.806334         2.195719
 H        -0.621180         4.561584         0.158613
 H         0.313199         3.091370         0.232732
 H        -2.019681         1.413037        -1.995392
