19
Iteration:  4587
 O        -0.530973         0.262510         0.452154
 C        -1.710684         0.932457         0.155387
 C        -3.038971         0.330668        -0.367551
 C        -3.408111         1.793661        -0.031572
 C        -2.537620         1.717484         1.144186
 C        -1.865203         3.084751         1.501943
 C        -0.784475         3.495347         0.420322
 O        -1.299883         3.214737        -0.885522
 C        -2.071252         2.067289        -0.921951
 H        -0.892718        -0.674469         0.788157
 H        -3.356581         0.011249        -1.406089
 H        -3.767350        -0.198490         0.292174
 H        -4.288315         2.417826        -0.166962
 H        -2.810491         1.297766         2.081591
 H        -2.695187         3.823536         1.420388
 H        -1.627444         3.118760         2.571294
 H        -0.631737         4.594068         0.506963
 H         0.177454         2.906188         0.679696
 H        -2.401233         1.742755        -1.938211
