19
Iteration:   998charge 0 multiplicity 1
 O        -0.720386         0.007927         0.387035
 C        -1.778425         0.899709         0.298934
 C        -3.140609         0.292831        -0.118283
 C        -3.354241         1.821114        -0.055641
 C        -2.444035         2.006613         1.195124
 C        -1.584363         3.212171         1.433536
 C        -0.871849         3.715490         0.186544
 O        -1.315973         3.024819        -0.937216
 C        -2.091091         1.914888        -0.892278
 H        -0.040414         0.320993         1.049224
 H        -3.304971        -0.215556        -1.043983
 H        -3.808410        -0.146469         0.620264
 H        -4.235525         2.512847        -0.235055
 H        -2.915344         1.534132         2.110002
 H        -2.210708         4.004697         1.785655
 H        -0.971310         3.002013         2.231977
 H        -1.181985         4.708418         0.070556
 H         0.165536         3.661754         0.228718
 H        -2.336168         1.455207        -1.887847
