19
Iteration:  2010
 O        -0.636055         0.042753         0.245892
 C        -1.772040         0.802126         0.199050
 C        -3.180439         0.321867         0.045998
 C        -3.296338         1.859993        -0.041863
 C        -2.405613         1.989929         1.153453
 C        -1.763579         3.326891         1.432265
 C        -0.931563         3.762091         0.297996
 O        -1.282625         2.987860        -0.925510
 C        -2.010331         1.864356        -0.909212
 H        -0.742588        -0.565619         0.932851
 H        -3.281294        -0.207667        -0.984068
 H        -3.626466        -0.171523         0.959892
 H        -4.253271         2.395841        -0.271178
 H        -2.713208         1.515710         2.154556
 H        -2.537077         4.088815         1.547327
 H        -1.155452         3.115181         2.389694
 H        -1.195503         4.846808         0.142924
 H         0.104473         3.477509         0.469438
 H        -2.171404         1.608984        -1.903457
