19
Iteration:  3248charge 0 multiplicity 1
 O        -0.611739         0.070547         0.341791
 C        -1.774251         0.823590         0.199338
 C        -3.251004         0.310420        -0.025056
 C        -3.283708         1.873965        -0.133635
 C        -2.355622         1.886489         1.244642
 C        -1.744893         3.274485         1.502325
 C        -0.839582         3.525450         0.283266
 O        -1.422999         3.208364        -0.972865
 C        -2.041891         1.919835        -0.964256
 H         0.028295         0.464349         0.900462
 H        -3.324472        -0.228462        -0.943490
 H        -3.746860        -0.191436         0.748037
 H        -4.333938         2.272852        -0.243337
 H        -2.685396         1.348895         2.180835
 H        -2.530179         4.032803         1.636179
 H        -1.313257         3.171793         2.548980
 H        -0.664082         4.567652         0.108075
 H         0.120049         2.993650         0.581879
 H        -2.101368         1.460605        -2.003374
