19
Iteration:  4674charge 0 multiplicity 1
 O        -0.569706         0.234973         0.424660
 C        -1.790066         0.860916         0.123899
 C        -3.125376         0.310645        -0.372129
 C        -3.373970         1.824758        -0.164833
 C        -2.451413         1.698763         1.192897
 C        -1.863097         3.109849         1.566505
 C        -0.838697         3.617825         0.506351
 O        -1.285155         3.227252        -0.824421
 C        -2.008034         1.994958        -0.921014
 H        -0.613970        -0.710521         0.445704
 H        -3.167524         0.069729        -1.459790
 H        -3.702266        -0.354164         0.310446
 H        -4.269420         2.464014        -0.326366
 H        -2.978312         1.157739         1.982921
 H        -2.738177         3.800851         1.477832
 H        -1.482929         3.195379         2.609319
 H        -0.847103         4.697518         0.262231
 H         0.218530         3.233828         0.659917
 H        -1.922261         1.770236        -2.034989
