19
Iteration:  3515charge 0 multiplicity 1
 O        -0.549077         0.055808         0.469827
 C        -1.793383         0.847303         0.134149
 C        -3.196735         0.324857        -0.171217
 C        -3.321724         1.896927        -0.108268
 C        -2.376396         1.803052         1.211356
 C        -1.756097         3.160339         1.493347
 C        -0.968063         3.651440         0.328904
 O        -1.279473         3.200395        -0.983666
 C        -2.016874         1.997847        -0.903452
 H        -0.860610        -0.787981         0.727318
 H        -3.244284        -0.158054        -1.099221
 H        -3.811930        -0.149772         0.582444
 H        -4.332879         2.426512        -0.208864
 H        -2.872878         1.444720         2.126514
 H        -2.683582         3.859596         1.589413
 H        -1.166437         3.232668         2.417888
 H        -0.984700         4.780126         0.456553
 H         0.088623         3.282241         0.371478
 H        -2.307187         1.518386        -1.858752
