19
Iteration:   680
 O        -0.733447        -0.002122         0.596839
 C        -1.776994         0.872369         0.401066
 C        -3.087374         0.289880        -0.101075
 C        -3.407448         1.892294        -0.064257
 C        -2.453652         1.897012         1.225075
 C        -1.574209         3.280475         1.342826
 C        -0.723345         3.518254         0.078201
 O        -1.546076         3.220017        -1.038050
 C        -2.057150         1.949241        -0.941941
 H        -0.052853         0.305802         1.203933
 H        -2.847205        -0.281291        -0.985003
 H        -3.699917        -0.416005         0.492889
 H        -4.244006         2.629435        -0.312963
 H        -2.926756         1.592862         2.138281
 H        -2.306852         4.066508         1.498147
 H        -0.919275         3.208350         2.250577
 H        -0.313383         4.575013        -0.009801
 H         0.024198         2.713290         0.179483
 H        -1.891226         1.450932        -1.968328
