19
Iteration:  3670charge 0 multiplicity 1
 O        -0.662470         0.000170         0.533224
 C        -1.680623         0.925366         0.173691
 C        -3.159413         0.294269        -0.107274
 C        -3.308517         1.836800        -0.093043
 C        -2.400138         1.846900         1.163237
 C        -1.810248         3.193857         1.469695
 C        -0.872707         3.679115         0.298312
 O        -1.378123         3.227331        -0.980245
 C        -2.017259         1.985525        -0.969208
 H        -0.804304        -0.767814        -0.143821
 H        -3.316841        -0.222015        -1.014638
 H        -3.557033        -0.233969         0.847802
 H        -4.270535         2.464563        -0.221616
 H        -2.851680         1.333743         2.018768
 H        -2.635228         3.949086         1.895525
 H        -1.058458         3.060935         2.272786
 H        -0.716373         4.745189         0.446466
 H         0.130269         3.200216         0.463756
 H        -1.879095         1.420000        -1.932127
