19
Iteration:  2636charge 0 multiplicity 1
 O        -0.521447         0.206808         0.443293
 C        -1.737609         0.784841         0.178423
 C        -3.223058         0.342027        -0.110334
 C        -3.376012         1.873471        -0.087085
 C        -2.447917         1.795281         1.188696
 C        -1.751468         3.178158         1.429821
 C        -0.738184         3.515891         0.261523
 O        -1.398926         3.233318        -0.933660
 C        -2.122655         1.977045        -0.956154
 H        -0.521837        -0.319904         1.319308
 H        -3.426671        -0.228851        -0.967310
 H        -3.630149        -0.186090         0.764367
 H        -4.310062         2.507741        -0.263216
 H        -2.903366         1.310022         2.155237
 H        -2.571736         3.897745         1.610267
 H        -1.296331         3.174432         2.373795
 H        -0.466591         4.551562         0.114634
 H         0.070151         2.809116         0.567917
 H        -2.047443         1.575740        -1.990395
