19
Iteration:  2671
 O        -0.525517         0.215850         0.283939
 C        -1.788027         0.961993         0.250275
 C        -3.064910         0.318124        -0.082356
 C        -3.470479         1.809943        -0.105940
 C        -2.551240         1.956027         1.177198
 C        -1.800598         3.302322         1.520510
 C        -0.727104         3.416063         0.311151
 O        -1.359345         3.123848        -0.896973
 C        -2.092004         1.895594        -0.910909
 H        -0.881558        -0.733571         0.477468
 H        -3.134292        -0.128989        -1.033215
 H        -3.392000        -0.238262         0.759383
 H        -4.424511         2.102406        -0.378316
 H        -2.821018         1.478463         2.146240
 H        -2.547548         4.072944         1.570455
 H        -1.217835         3.205987         2.396179
 H        -0.156304         4.366582         0.057000
 H         0.144200         2.743455         0.496072
 H        -2.075501         1.512633        -1.898578
