19
Iteration:   675charge 0 multiplicity 1
 O        -0.748564        -0.029144         0.584221
 C        -1.742647         0.868166         0.399223
 C        -3.118658         0.275384        -0.055357
 C        -3.369530         1.886825        -0.111878
 C        -2.439145         1.900140         1.223615
 C        -1.580769         3.272862         1.326267
 C        -0.762882         3.548067         0.065329
 O        -1.532299         3.230981        -0.996603
 C        -2.041773         1.934856        -0.922272
 H        -0.120877         0.352496         1.224774
 H        -3.041368        -0.177579        -1.112040
 H        -3.710568        -0.432849         0.535743
 H        -4.154240         2.573725        -0.307325
 H        -3.003209         1.556136         2.161694
 H        -2.314217         4.189828         1.466556
 H        -0.956384         3.252892         2.224384
 H        -0.336668         4.564159        -0.030386
 H         0.123225         2.860428         0.017960
 H        -1.936851         1.518123        -1.973384
