19
Iteration:  4176charge 0 multiplicity 1
 O        -0.560547         0.191209         0.537698
 C        -1.773964         0.837897         0.167568
 C        -3.239308         0.260275        -0.153076
 C        -3.375323         1.801401        -0.101647
 C        -2.501937         1.826319         1.189361
 C        -1.789652         3.178432         1.445090
 C        -0.745073         3.536137         0.343415
 O        -1.308283         3.201542        -0.924851
 C        -2.063644         1.968249        -0.961867
 H         0.136481         0.630144        -0.044342
 H        -3.572433        -0.113841        -1.153119
 H        -3.822518        -0.346230         0.592601
 H        -4.241033         2.492007        -0.194017
 H        -2.925334         1.473299         2.110566
 H        -2.543678         4.007954         1.464702
 H        -1.255089         3.143397         2.429004
 H        -0.501685         4.609892         0.134813
 H         0.186797         2.929540         0.463314
 H        -2.287424         1.708528        -2.042676
