19
Iteration:  2855charge 0 multiplicity 1
 O        -0.556894         0.257481         0.367925
 C        -1.749142         0.848397         0.235417
 C        -3.218397         0.292121        -0.069846
 C        -3.448568         1.799507        -0.100373
 C        -2.439700         1.912049         1.139905
 C        -1.796184         3.303630         1.470063
 C        -0.748835         3.450324         0.413263
 O        -1.315800         3.107849        -0.945501
 C        -2.112377         1.900267        -0.950992
 H        -0.125935         0.414174        -0.562999
 H        -3.325657        -0.365478        -0.947259
 H        -3.725537        -0.071607         0.855409
 H        -4.436602         2.150652        -0.092603
 H        -2.738788         1.584697         2.120629
 H        -2.476750         4.256164         1.539295
 H        -1.304371         3.108859         2.389585
 H        -0.276648         4.378996         0.435501
 H         0.152944         2.881302         0.533821
 H        -2.217655         1.469380        -1.973513
