19
Iteration:   135
 O        -0.624477         0.323988         0.702921
 C        -1.830000         0.938499         0.327799
 C        -3.212928         0.395483        -0.006566
 C        -3.381414         1.914808        -0.113132
 C        -2.498047         1.922621         1.136011
 C        -1.479736         2.977944         1.466975
 C        -0.921055         3.627673         0.107074
 O        -1.344470         2.962404        -1.136205
 C        -2.066752         1.876476        -0.900309
 H        -0.554390        -0.463733         0.140594
 H        -3.287195        -0.094904        -1.002786
 H        -3.777352        -0.053835         0.739262
 H        -4.304501         2.635955        -0.444526
 H        -2.901697         1.382167         1.956490
 H        -1.796453         3.782941         2.100165
 H        -0.674373         2.502318         1.936976
 H        -1.163909         4.644871        -0.091707
 H         0.227393         3.675652        -0.051667
 H        -2.183576         1.294557        -1.850335
