19
Iteration:  4571
 O        -0.581752         0.248276         0.499199
 C        -1.794609         0.888645         0.133586
 C        -3.121596         0.274220        -0.289256
 C        -3.313892         1.875306        -0.145024
 C        -2.486140         1.771879         1.200041
 C        -1.849302         3.077983         1.553877
 C        -0.879109         3.502610         0.441038
 O        -1.307494         3.257389        -0.903296
 C        -2.039555         2.053098        -0.948255
 H        -0.309284        -0.522713        -0.093505
 H        -3.040997        -0.184143        -1.284720
 H        -3.483225        -0.498596         0.386697
 H        -4.298450         2.346373        -0.278609
 H        -3.030537         1.140205         1.957163
 H        -2.588956         3.882424         1.764506
 H        -1.160544         2.976074         2.420291
 H        -0.617963         4.563319         0.416863
 H         0.049217         2.986126         0.545742
 H        -2.077086         1.635874        -2.009169
