19
Iteration:  4867charge 0 multiplicity 1
 O        -0.680491         0.050093         0.456747
 C        -1.723593         0.931585         0.083627
 C        -2.989792         0.227938        -0.373153
 C        -3.330631         1.857719        -0.229139
 C        -2.512957         1.740485         1.170367
 C        -1.876388         3.102693         1.586377
 C        -0.915361         3.532020         0.535843
 O        -1.313595         3.369315        -0.785666
 C        -1.993981         2.085002        -0.994758
 H         0.133963         0.424517         0.041455
 H        -3.106090        -0.197283        -1.384424
 H        -3.400368        -0.548882         0.286172
 H        -4.262931         2.448315        -0.247611
 H        -3.030435         1.226944         2.012857
 H        -2.732388         3.799692         1.735912
 H        -1.424467         2.989492         2.604981
 H        -0.622360         4.590486         0.729006
 H        -0.001184         2.950785         0.814338
 H        -2.133531         1.608479        -1.972622
