19
Iteration:  2742charge 0 multiplicity 1
 O        -0.589003         0.150260         0.440433
 C        -1.729925         0.780385         0.155613
 C        -3.129313         0.289448        -0.118110
 C        -3.381850         1.871084        -0.017972
 C        -2.484546         1.912334         1.178286
 C        -1.752417         3.250282         1.582401
 C        -0.798304         3.617289         0.272108
 O        -1.383935         3.132606        -1.013036
 C        -2.061085         1.958572        -0.925823
 H        -0.638048        -0.863195         0.472657
 H        -3.226361         0.008052        -1.216913
 H        -3.709583        -0.353047         0.630311
 H        -4.468376         2.229674        -0.193888
 H        -2.942174         1.433143         2.000924
 H        -2.495601         4.047664         1.653391
 H        -1.135406         3.110038         2.527538
 H        -0.383144         4.588578         0.136678
 H         0.116616         3.042651         0.399752
 H        -2.096107         1.809885        -2.061237
