19
Iteration:  3891
 O        -0.687201         0.149006         0.507815
 C        -1.776592         0.882288         0.149004
 C        -3.202159         0.297420        -0.136683
 C        -3.386224         1.883193        -0.054118
 C        -2.395022         1.821903         1.151678
 C        -1.738986         3.127302         1.537503
 C        -0.839601         3.716363         0.279478
 O        -1.243394         2.998206        -0.987321
 C        -2.057142         1.970051        -0.932966
 H         0.223026         0.546881         0.746182
 H        -3.520586        -0.135573        -1.118167
 H        -3.759891        -0.127519         0.665012
 H        -4.319289         2.384643        -0.213917
 H        -2.717043         1.144676         2.009189
 H        -2.486460         3.919689         1.728052
 H        -1.036780         2.992075         2.322710
 H        -1.403275         4.693505         0.162947
 H         0.306334         3.812771         0.167323
 H        -2.241837         1.747671        -2.017736
