19
Iteration:  3763charge 0 multiplicity 1
 O        -0.519542         0.276574         0.384742
 C        -1.858564         0.898127         0.190057
 C        -3.161088         0.254497        -0.056620
 C        -3.478460         1.778092        -0.150770
 C        -2.577348         2.030692         1.205708
 C        -1.745704         3.201966         1.463528
 C        -0.742919         3.364535         0.355402
 O        -1.302923         3.140185        -0.879061
 C        -2.087359         1.881078        -0.952617
 H         0.009526         0.852247        -0.114439
 H        -3.298238        -0.154236        -1.111332
 H        -3.637692        -0.377147         0.680451
 H        -4.457545         2.153399        -0.484897
 H        -2.942010         1.492666         2.105847
 H        -2.221035         4.255625         1.483545
 H        -1.177338         3.150655         2.447683
 H        -0.409961         4.443820         0.223048
 H         0.325616         2.852754         0.651402
 H        -1.816378         1.480525        -1.918972
