19
Iteration:  4414charge 0 multiplicity 1
 O        -0.508929         0.235417         0.323359
 C        -1.799785         0.865715         0.205876
 C        -3.177748         0.322041        -0.169077
 C        -3.450308         1.779205        -0.150804
 C        -2.445157         1.820797         1.151701
 C        -1.845273         3.152843         1.579225
 C        -0.848603         3.508555         0.394889
 O        -1.299472         3.213351        -0.930235
 C        -1.974258         1.993841        -0.937930
 H        -0.571452        -0.244592         1.253514
 H        -3.338737        -0.123422        -1.177280
 H        -3.716130        -0.252295         0.616698
 H        -4.295474         2.374120        -0.433350
 H        -3.005955         1.279501         2.059765
 H        -2.561460         3.985123         1.582899
 H        -1.268979         3.132636         2.572294
 H        -0.571743         4.584397         0.447358
 H         0.069272         2.921421         0.578781
 H        -1.902109         1.580091        -1.980369
