19
Iteration:  4495charge 0 multiplicity 1
 O        -0.509108         0.189764         0.471980
 C        -1.717146         0.901359         0.092191
 C        -3.092175         0.327627        -0.334983
 C        -3.374355         1.860299        -0.043195
 C        -2.457486         1.797979         1.233145
 C        -1.895463         3.133803         1.477016
 C        -0.867687         3.495709         0.463596
 O        -1.315952         3.189574        -0.934522
 C        -2.071273         2.043455        -0.939263
 H        -0.786610        -0.782775         0.660964
 H        -3.274303        -0.091293        -1.320920
 H        -3.678983        -0.249069         0.380874
 H        -4.268938         2.527206        -0.029911
 H        -2.888442         1.183780         2.038768
 H        -2.714754         3.898750         1.528633
 H        -1.306622         3.264779         2.409896
 H        -0.613684         4.569604         0.473412
 H         0.067458         2.879306         0.596265
 H        -2.214503         1.741795        -2.014787
