19
Iteration:  3308charge 0 multiplicity 1
 O        -0.652148         0.127729         0.550245
 C        -1.781765         0.879724         0.160217
 C        -3.164521         0.301731        -0.220395
 C        -3.370327         1.901435        -0.054260
 C        -2.448904         1.852778         1.218662
 C        -1.651045         3.136342         1.534830
 C        -0.829024         3.605625         0.250261
 O        -1.377439         3.114528        -1.043267
 C        -2.099889         1.969445        -0.841257
 H         0.153562         0.329058        -0.034996
 H        -3.255222         0.012629        -1.312387
 H        -3.459262        -0.488216         0.586169
 H        -4.369061         2.268587        -0.005135
 H        -2.791554         1.470789         2.225704
 H        -2.490162         3.833998         1.724121
 H        -0.982379         3.057367         2.343757
 H        -0.897466         4.718738         0.063048
 H         0.182933         3.338035         0.259351
 H        -2.074637         1.542123        -1.828877
