19
Iteration:  4923charge 0 multiplicity 1
 O        -0.531048         0.304916         0.381784
 C        -1.723011         0.936668         0.119471
 C        -3.051710         0.328441        -0.310356
 C        -3.302458         1.850360        -0.300609
 C        -2.609853         1.749757         1.094968
 C        -1.921204         3.040607         1.691425
 C        -0.914334         3.443852         0.610771
 O        -1.298336         3.288346        -0.809766
 C        -1.948135         1.975976        -0.977693
 H        -0.564716        -0.564343         0.057718
 H        -3.247149        -0.054541        -1.298088
 H        -3.634493        -0.061817         0.494080
 H        -4.287554         2.231249        -0.440310
 H        -3.070223         1.207223         1.935846
 H        -2.668161         3.835269         1.876831
 H        -1.480515         2.682961         2.616436
 H        -0.676678         4.491321         0.525385
 H         0.017725         2.881232         0.706113
 H        -2.057108         1.692982        -2.054766
