19
Iteration:  1839
 O        -0.687396        -0.072787         0.261078
 C        -1.772916         0.820998         0.209972
 C        -3.141949         0.355115         0.011884
 C        -3.305312         1.888102        -0.025544
 C        -2.399752         1.902795         1.225357
 C        -1.819069         3.378312         1.475224
 C        -0.904950         3.681752         0.193470
 O        -1.337961         3.147597        -0.979049
 C        -1.968838         1.825250        -0.878389
 H        -0.172486        -0.039947         1.131828
 H        -3.156986        -0.186037        -0.900559
 H        -3.674811        -0.195401         0.708562
 H        -4.342577         2.397081         0.024041
 H        -2.744412         1.541185         2.176614
 H        -2.553928         4.224249         1.490783
 H        -1.213602         3.473178         2.315014
 H        -0.582934         4.669372         0.085228
 H         0.040436         3.159858         0.546683
 H        -2.038589         1.251834        -1.939960
