19
Iteration:  3455
 O        -0.645218         0.081762         0.393921
 C        -1.788432         0.921893         0.227967
 C        -3.147469         0.285088        -0.100966
 C        -3.343758         1.853014        -0.146647
 C        -2.582600         1.946032         1.164165
 C        -1.718748         3.077222         1.521674
 C        -0.821315         3.677280         0.316027
 O        -1.349503         3.131761        -0.966381
 C        -2.017485         1.896610        -0.907242
 H         0.182239         0.590330         0.525843
 H        -2.977106        -0.298849        -1.059793
 H        -3.701546        -0.232812         0.711679
 H        -4.243343         2.432286        -0.134501
 H        -3.116080         1.409130         1.954541
 H        -2.189741         3.894476         1.997249
 H        -0.970642         2.753554         2.300850
 H        -0.872570         4.742990         0.337461
 H         0.213786         3.381092         0.296590
 H        -1.975934         1.747165        -1.968982
