19
Iteration:  1748
 O        -0.526085         0.410618         0.511448
 C        -1.759212         0.934372         0.274076
 C        -3.328591         0.283145        -0.092670
 C        -3.404913         1.783386        -0.102961
 C        -2.526767         1.915947         1.189835
 C        -1.640809         3.141161         1.418679
 C        -0.738028         3.351518         0.256755
 O        -1.388023         3.182556        -1.018081
 C        -2.092532         1.910134        -0.873197
 H        -0.150898        -0.313786        -0.111455
 H        -3.400719        -0.349008        -0.992202
 H        -3.856877        -0.281631         0.709276
 H        -4.370476         2.374519        -0.309617
 H        -2.948046         1.493289         2.104033
 H        -2.219151         3.987651         1.675989
 H        -0.909186         2.871162         2.288228
 H        -0.327680         4.447791         0.223031
 H         0.152687         2.691381         0.308874
 H        -2.053610         1.493048        -1.926967
