19
Iteration:  3264
 O        -0.611769         0.016323         0.358628
 C        -1.745445         0.889289         0.218960
 C        -3.190534         0.320675         0.019754
 C        -3.381875         1.847181        -0.120795
 C        -2.467997         1.887495         1.132521
 C        -1.689489         3.126249         1.473454
 C        -0.794789         3.643338         0.331396
 O        -1.446611         3.223408        -0.960191
 C        -2.015023         1.862469        -0.953497
 H         0.106794         0.636298         0.708343
 H        -3.497322        -0.405582        -0.820071
 H        -3.670873        -0.011790         1.033301
 H        -3.985414         2.650317        -0.415185
 H        -3.109225         1.493197         1.937600
 H        -2.428696         3.932719         1.654096
 H        -1.067767         3.162399         2.328821
 H        -0.741192         4.766826         0.438452
 H         0.140328         3.202864         0.207274
 H        -1.991667         1.534651        -1.969287
