19
Iteration:   936
 O        -0.671107         0.041656         0.382204
 C        -1.780419         0.850987         0.206940
 C        -3.205052         0.268953        -0.053639
 C        -3.393819         1.794286         0.027479
 C        -2.427150         1.992818         1.207074
 C        -1.765923         3.405960         1.396933
 C        -0.787908         3.581187         0.282812
 O        -1.294114         3.097827        -0.965471
 C        -2.034698         1.874191        -0.888613
 H        -0.124835        -0.239685        -0.389230
 H        -3.522439        -0.144979        -1.051580
 H        -3.437974        -0.305147         0.858264
 H        -4.260554         2.454328        -0.089764
 H        -2.786937         1.682562         2.170735
 H        -2.710830         3.964801         1.216946
 H        -1.347093         3.645798         2.481149
 H        -0.378129         4.633012         0.078638
 H         0.178550         2.977141         0.565865
 H        -2.024947         1.601205        -1.947909
