19
Iteration:  1245charge 0 multiplicity 1
 O        -0.700338         0.057519         0.546474
 C        -1.766310         0.924255         0.280982
 C        -3.085418         0.246564        -0.099169
 C        -3.338934         1.828547        -0.152345
 C        -2.421693         1.949258         1.182699
 C        -1.618511         3.189858         1.479096
 C        -0.715131         3.680956         0.171038
 O        -1.472526         3.204633        -0.991535
 C        -2.144808         1.918032        -0.901312
 H        -0.881752        -0.930472         0.385016
 H        -3.041538        -0.167483        -1.134240
 H        -3.671810        -0.348263         0.673761
 H        -4.326016         2.296490        -0.172782
 H        -3.095479         1.638420         2.058175
 H        -2.345904         3.999346         1.813217
 H        -0.971640         2.953655         2.367640
 H        -0.451605         4.797708         0.066001
 H         0.118197         3.022710         0.226879
 H        -2.076080         1.428121        -1.986694
