19
Iteration:   243charge 0 multiplicity 1
 O        -0.759059        -0.040624         0.376759
 C        -1.757249         0.873802         0.201194
 C        -3.125789         0.249191         0.146804
 C        -3.398840         1.803900         0.022087
 C        -2.419233         1.995867         1.193624
 C        -1.811454         3.431886         1.318175
 C        -0.610926         3.587105         0.203914
 O        -1.349260         3.125089        -1.015324
 C        -2.078232         1.870854        -0.966185
 H        -0.179529         0.211003         1.170201
 H        -3.333658        -0.456911        -0.771672
 H        -3.408428        -0.208157         1.093704
 H        -4.299880         2.481785        -0.308070
 H        -2.849284         1.536610         2.207051
 H        -2.624052         4.163231         1.055978
 H        -1.587437         3.671972         2.409392
 H        -0.239902         4.637678         0.053523
 H         0.257369         3.003062         0.556653
 H        -2.181682         1.575121        -1.988388
