19
Iteration:  1480
 O        -0.589783         0.222086         0.390222
 C        -1.834075         0.908316         0.134488
 C        -3.131902         0.266298        -0.014673
 C        -3.509736         1.840119        -0.013626
 C        -2.477037         1.945576         1.212309
 C        -1.731253         3.244700         1.442332
 C        -0.789804         3.559368         0.352054
 O        -1.171073         2.991168        -1.004994
 C        -2.121623         1.990549        -0.974699
 H        -0.921918        -0.624369         0.173671
 H        -3.228184        -0.392958        -0.941236
 H        -3.417737        -0.220222         0.957656
 H        -4.546890         2.385193         0.032387
 H        -2.754127         1.466838         2.159708
 H        -2.388945         4.023351         1.309691
 H        -1.248584         3.288790         2.513681
 H        -0.738581         4.599459         0.015109
 H         0.187313         3.119490         0.615648
 H        -2.212780         1.612796        -1.956936
