19
Iteration:  4873charge 0 multiplicity 1
 O        -0.707717         0.096420         0.473853
 C        -1.723775         0.940419         0.073611
 C        -3.021999         0.232771        -0.400757
 C        -3.343819         1.843582        -0.168164
 C        -2.498226         1.709791         1.175307
 C        -1.883102         3.070263         1.579336
 C        -0.872264         3.540345         0.554712
 O        -1.326664         3.357218        -0.789770
 C        -1.988009         2.079418        -0.972558
 H         0.216451         0.181762         0.033256
 H        -2.896831        -0.056081        -1.474415
 H        -3.428806        -0.563246         0.269005
 H        -4.305703         2.341473        -0.389201
 H        -2.986414         1.246736         2.025970
 H        -2.728917         3.772693         1.540729
 H        -1.491241         3.067134         2.607873
 H        -0.685706         4.621748         0.481957
 H         0.143456         3.063341         0.645266
 H        -1.913610         1.798756        -2.069413
