19
Iteration:  4126
 O        -0.572209         0.041796         0.303303
 C        -1.779941         0.877091         0.159363
 C        -3.162686         0.243886        -0.090137
 C        -3.390836         1.845921        -0.133806
 C        -2.469098         1.968720         1.141845
 C        -1.790605         3.305211         1.496600
 C        -0.810495         3.514076         0.416961
 O        -1.371104         3.194507        -0.880612
 C        -2.017973         1.900743        -0.942623
 H        -0.135465         0.407658         1.029965
 H        -3.261427        -0.430832        -0.932934
 H        -3.653377        -0.279892         0.754796
 H        -4.300363         2.399424        -0.380477
 H        -2.891744         1.525086         2.095350
 H        -2.581214         4.067758         1.463051
 H        -1.199844         3.410938         2.410896
 H        -0.597665         4.555936         0.193540
 H         0.194119         2.916090         0.642295
 H        -2.018209         1.503376        -1.919528
