19
Iteration:  3634
 O        -0.520252         0.209072         0.402587
 C        -1.773895         0.891983         0.291296
 C        -3.243934         0.281429        -0.165792
 C        -3.370263         1.849663        -0.149752
 C        -2.498377         1.878608         1.128719
 C        -1.742008         3.170535         1.498879
 C        -0.760230         3.587917         0.345112
 O        -1.391017         3.208479        -0.927624
 C        -2.046429         1.870419        -0.919836
 H        -0.792784        -0.677744         0.828795
 H        -3.405960        -0.393630        -1.103479
 H        -3.770750        -0.328370         0.651455
 H        -4.298900         2.405238        -0.435386
 H        -3.023557         1.435425         1.983364
 H        -2.368339         3.966412         1.939255
 H        -0.942320         2.930742         2.284357
 H        -0.655272         4.707863         0.142442
 H         0.222833         3.164222         0.467037
 H        -1.757888         1.478976        -1.997345
