19
Iteration:   679charge 0 multiplicity 1
 O        -0.739172        -0.008133         0.592102
 C        -1.766645         0.871801         0.405521
 C        -3.093355         0.286708        -0.089591
 C        -3.403938         1.894779        -0.073820
 C        -2.450568         1.892357         1.224001
 C        -1.572230         3.277526         1.336379
 C        -0.731780         3.522381         0.072774
 O        -1.543470         3.221153        -1.027056
 C        -2.053215         1.948702        -0.936394
 H        -0.048853         0.322779         1.227584
 H        -2.879459        -0.270134        -1.011224
 H        -3.704979        -0.429144         0.486407
 H        -4.218512         2.629376        -0.315412
 H        -2.953288         1.578683         2.149796
 H        -2.334017         4.121716         1.493478
 H        -0.919974         3.215097         2.255856
 H        -0.302262         4.610424        -0.017465
 H         0.016065         2.753474         0.146708
 H        -1.883088         1.452808        -2.015606
