19
Iteration:  2413
 O        -0.566433         0.145478         0.431921
 C        -1.762157         0.858286         0.239804
 C        -3.235096         0.325776        -0.081726
 C        -3.336901         1.831653        -0.109668
 C        -2.430324         1.869018         1.170574
 C        -1.718044         3.159365         1.533171
 C        -0.803837         3.626523         0.263842
 O        -1.410729         3.184832        -1.030829
 C        -2.046282         1.967424        -0.935503
 H        -0.565510        -0.634271         1.103829
 H        -3.401114        -0.267741        -0.986935
 H        -3.745854        -0.279357         0.617750
 H        -4.319927         2.256729        -0.117278
 H        -2.875004         1.304599         2.046179
 H        -2.272996         4.089932         1.749668
 H        -1.181010         2.834692         2.353497
 H        -0.751308         4.717177         0.264797
 H         0.255497         3.275469         0.269854
 H        -2.111116         1.495848        -1.986347
