19
Iteration:  4630
 O        -0.564966         0.111115         0.254196
 C        -1.714481         0.931198         0.148443
 C        -3.108870         0.320056        -0.177839
 C        -3.316208         1.836280        -0.261520
 C        -2.597390         1.893490         1.135083
 C        -1.942576         3.162758         1.566768
 C        -0.780636         3.465142         0.573776
 O        -1.367825         3.194480        -0.824924
 C        -1.996239         1.967700        -0.922223
 H         0.201613         0.743950         0.237789
 H        -3.087634        -0.380662        -1.045600
 H        -3.463741        -0.188894         0.751273
 H        -4.307195         2.240066        -0.457860
 H        -3.126906         1.336773         1.902201
 H        -2.608834         4.057719         1.611803
 H        -1.565496         3.066542         2.603729
 H        -0.548791         4.569348         0.690788
 H         0.118251         2.779865         0.776849
 H        -1.809204         1.692594        -1.988722
