19
Iteration:   747charge 0 multiplicity 1
 O        -0.558370         0.162825         0.321802
 C        -1.838287         0.919505         0.245697
 C        -3.285097         0.299452         0.023925
 C        -3.389325         1.867344        -0.035765
 C        -2.561651         2.013927         1.261570
 C        -1.752251         3.302729         1.403792
 C        -0.756983         3.500385         0.223247
 O        -1.251627         2.982316        -0.956850
 C        -2.030678         1.817569        -0.896976
 H         0.017031         0.866609        -0.141997
 H        -3.326657        -0.380943        -0.786709
 H        -3.740973        -0.175422         0.898793
 H        -4.309320         2.456244        -0.331838
 H        -2.987213         1.634274         2.130335
 H        -2.455987         4.083917         1.596537
 H        -0.968881         3.336891         2.230467
 H        -0.563631         4.480338        -0.076309
 H         0.167994         2.992236         0.546970
 H        -2.098255         1.450761        -1.905341
