19
Iteration:  3336
 O        -0.541133         0.203191         0.480374
 C        -1.745334         0.845570         0.175262
 C        -3.354135         0.267279        -0.059941
 C        -3.354357         1.853387        -0.110462
 C        -2.412380         1.831392         1.189223
 C        -1.770549         3.169837         1.486381
 C        -0.798223         3.578992         0.368822
 O        -1.318953         3.196686        -1.046736
 C        -2.078177         1.930676        -0.923497
 H        -0.069203        -0.017633        -0.319982
 H        -3.457494        -0.207587        -1.019832
 H        -3.734582        -0.279027         0.731965
 H        -4.262714         2.448147        -0.102748
 H        -2.818316         1.499446         2.148648
 H        -2.665401         3.804439         1.632221
 H        -1.174901         3.253909         2.472611
 H        -0.585152         4.625799         0.235124
 H         0.158874         2.953710         0.463590
 H        -2.066820         1.525053        -1.982932
