19
Iteration:  3797charge 0 multiplicity 1
 O        -0.597811         0.094226         0.517414
 C        -1.738032         0.805390         0.214166
 C        -3.143939         0.354904        -0.108902
 C        -3.395611         1.893751        -0.044424
 C        -2.438074         1.857090         1.204524
 C        -1.842242         3.192349         1.388502
 C        -0.824197         3.470362         0.272778
 O        -1.313768         3.193676        -0.980561
 C        -2.098446         2.020407        -0.951678
 H         0.133421         0.612501         0.200117
 H        -3.274120        -0.033827        -1.162453
 H        -3.639609        -0.355636         0.590959
 H        -4.402393         2.398324        -0.192172
 H        -2.592981         1.347020         2.174613
 H        -2.651090         4.019394         1.410250
 H        -1.304447         3.194307         2.380655
 H        -0.502668         4.536750         0.260334
 H         0.075283         2.748311         0.669581
 H        -2.088358         1.520925        -1.914367
