19
Iteration:  3994charge 0 multiplicity 1
 O        -0.597902         0.231455         0.507855
 C        -1.790818         0.890289         0.277579
 C        -3.100275         0.248159        -0.230456
 C        -3.315038         1.801700         0.005740
 C        -2.508694         1.841346         1.245175
 C        -1.811890         3.184291         1.354574
 C        -0.727803         3.441330         0.271103
 O        -1.348960         3.208505        -0.955235
 C        -2.141568         2.088880        -0.930420
 H        -0.676056        -0.571851         0.041139
 H        -2.891801        -0.112725        -1.188642
 H        -3.696066        -0.401329         0.439974
 H        -4.310851         2.313115        -0.044582
 H        -2.742297         1.291471         2.154930
 H        -2.539747         4.059329         1.276640
 H        -1.352835         3.313977         2.376274
 H        -0.315595         4.434386         0.381612
 H         0.107616         2.711204         0.415013
 H        -2.275659         1.707664        -1.903530
