19
Iteration:  1675charge 0 multiplicity 1
 O        -0.583261         0.084854         0.379855
 C        -1.764974         0.853202         0.251505
 C        -3.168048         0.333027        -0.096183
 C        -3.278852         1.859428         0.021669
 C        -2.444365         1.874261         1.279772
 C        -1.795660         3.287939         1.346915
 C        -0.827285         3.558223         0.257627
 O        -1.393874         3.165475        -1.008953
 C        -1.984333         1.879109        -0.845495
 H        -1.038825        -0.759238         0.350398
 H        -3.329803        -0.148442        -1.076707
 H        -3.815372        -0.127831         0.652926
 H        -4.109612         2.639921        -0.149317
 H        -2.841114         1.481120         2.235555
 H        -2.642461         4.155022         1.272923
 H        -1.348329         3.353653         2.273741
 H        -0.659959         4.595795         0.177749
 H         0.192453         3.135490         0.384008
 H        -2.199429         1.652023        -1.939487
