19
Iteration:  1529
 O        -0.538593         0.167836         0.341490
 C        -1.698388         0.918286         0.343616
 C        -3.212759         0.333932        -0.089889
 C        -3.358793         1.857817        -0.129769
 C        -2.458954         1.990060         1.175036
 C        -1.751661         3.266639         1.428388
 C        -0.710486         3.359010         0.250537
 O        -1.510034         3.165499        -0.880839
 C        -2.078442         1.861390        -0.909223
 H        -0.662671        -0.446813         1.138722
 H        -3.152850        -0.046411        -1.079176
 H        -3.776529        -0.266504         0.597498
 H        -4.145018         2.519713        -0.331262
 H        -3.058882         1.603354         2.012858
 H        -2.506120         4.179947         1.425630
 H        -1.138560         3.318611         2.305180
 H        -0.323499         4.394349         0.000092
 H         0.130396         2.649429         0.417702
 H        -1.952798         1.446046        -1.977053
