19
Iteration:  4343charge 0 multiplicity 1
 O        -0.578805         0.104491         0.408774
 C        -1.739819         0.845003         0.151946
 C        -3.152363         0.285884        -0.034631
 C        -3.338091         1.912434        -0.223723
 C        -2.560203         1.935197         1.171906
 C        -1.761412         3.101882         1.479069
 C        -0.822031         3.513060         0.378620
 O        -1.441452         3.277310        -0.854142
 C        -1.975794         1.898526        -0.936309
 H         0.213497         0.482833        -0.174529
 H        -3.184093        -0.339870        -0.955259
 H        -3.553327        -0.373121         0.760061
 H        -4.260366         2.504992        -0.521513
 H        -3.134580         1.511796         1.978329
 H        -2.632843         3.829323         1.478525
 H        -1.343051         2.983685         2.458982
 H        -0.504026         4.568020         0.349554
 H         0.170888         2.994041         0.566844
 H        -1.852951         1.554500        -1.947651
