19
Iteration:  4543charge 0 multiplicity 1
 O        -0.573572         0.116380         0.375539
 C        -1.781689         0.859942         0.171528
 C        -3.203025         0.263348        -0.134224
 C        -3.301863         1.827709        -0.298959
 C        -2.555166         1.915313         1.089603
 C        -1.792247         3.072004         1.597472
 C        -0.807448         3.602398         0.415573
 O        -1.418883         3.266493        -0.759893
 C        -1.968255         1.944319        -0.941438
 H         0.328884         0.618834         0.363685
 H        -3.134606        -0.222629        -1.141703
 H        -3.670234        -0.482120         0.516640
 H        -4.192080         2.290690        -0.682616
 H        -3.176660         1.389214         1.774472
 H        -2.432399         3.900196         1.921320
 H        -1.192426         2.781630         2.461303
 H        -0.695524         4.706266         0.333622
 H         0.272176         3.193152         0.495425
 H        -1.914562         1.606811        -1.976743
