19
Iteration:   839
 O        -0.708317         0.132926         0.593288
 C        -1.794033         0.963695         0.290732
 C        -3.133480         0.344315        -0.075672
 C        -3.350145         1.850132        -0.079931
 C        -2.438818         1.947239         1.189871
 C        -1.619408         3.171428         1.451735
 C        -0.803582         3.561182         0.181143
 O        -1.421249         3.167893        -1.062608
 C        -2.048455         1.843103        -0.889562
 H        -0.392575        -0.340362        -0.191931
 H        -3.175291        -0.118628        -1.121227
 H        -3.598665        -0.424244         0.566052
 H        -4.303537         2.242389        -0.381167
 H        -3.018210         1.630260         2.107453
 H        -2.204357         3.972243         1.868420
 H        -0.893071         2.798686         2.165929
 H        -0.513473         4.673703         0.122978
 H        -0.028768         2.795402         0.156496
 H        -2.145718         1.518779        -1.889870
