19
Iteration:   235
 O        -0.735912        -0.079293         0.365640
 C        -1.761953         0.877206         0.211640
 C        -3.162465         0.253920         0.147920
 C        -3.316843         1.829755        -0.007039
 C        -2.440649         2.014183         1.180413
 C        -1.819751         3.427783         1.254490
 C        -0.665669         3.620275         0.224721
 O        -1.356973         3.117897        -0.960762
 C        -2.061579         1.876644        -0.872887
 H        -0.074239         0.101662         1.115110
 H        -3.325675        -0.213813        -0.779551
 H        -3.446693        -0.436686         0.936865
 H        -4.310632         2.485016        -0.185507
 H        -2.592554         1.564878         2.114789
 H        -2.465377         4.133404         0.784542
 H        -1.640350         3.734252         2.205414
 H        -0.299844         4.564322         0.009548
 H         0.131669         2.790284         0.273120
 H        -2.343803         1.581449        -1.919652
