19
Iteration:  1643
 O        -0.637543         0.014830         0.355654
 C        -1.722363         0.879074         0.096508
 C        -3.194208         0.270808         0.049346
 C        -3.360821         1.800593        -0.028038
 C        -2.430929         1.947668         1.159494
 C        -1.754925         3.340929         1.488021
 C        -0.878008         3.728980         0.372784
 O        -1.229256         3.101221        -1.014273
 C        -2.032665         1.869001        -0.991569
 H        -1.071378        -0.808664         0.789874
 H        -3.449256        -0.326282        -0.865607
 H        -3.662034         0.007218         1.016312
 H        -4.371122         2.322213        -0.213657
 H        -2.711471         1.454212         2.127609
 H        -2.563226         4.146112         1.697983
 H        -1.262797         3.131537         2.366375
 H        -0.989949         4.701448         0.012247
 H         0.192020         3.496129         0.594679
 H        -2.339080         1.698782        -2.050081
