19
Iteration:   595
 O        -0.596387         0.171523         0.338075
 C        -1.799450         0.808656         0.338428
 C        -3.377702         0.312449        -0.099322
 C        -3.373903         1.822434         0.049543
 C        -2.410953         2.005341         1.267516
 C        -1.747415         3.371804         1.382841
 C        -0.888587         3.702795         0.151800
 O        -1.076198         2.826854        -0.959375
 C        -2.111838         1.842048        -0.806945
 H        -0.137353         0.504420        -0.455674
 H        -3.444848        -0.110169        -1.107245
 H        -4.040054        -0.212362         0.666112
 H        -4.313329         2.387630        -0.314108
 H        -2.891846         1.842654         2.227775
 H        -2.489291         4.127248         1.654493
 H        -1.044455         3.254232         2.216893
 H        -0.989357         4.612717        -0.288897
 H         0.213464         3.460091         0.391538
 H        -2.171095         1.484808        -1.743757
