19
Iteration:  2518
 O        -0.570751         0.160042         0.290387
 C        -1.747501         0.824214         0.209571
 C        -3.130876         0.237828        -0.164968
 C        -3.379844         1.796618         0.046739
 C        -2.522285         1.935591         1.296188
 C        -1.843084         3.303422         1.428689
 C        -0.743247         3.533721         0.245923
 O        -1.315037         3.165663        -0.989743
 C        -2.054629         1.970526        -0.821040
 H        -0.718794        -0.753109         0.668243
 H        -3.261480        -0.340899        -1.125871
 H        -3.687246        -0.141835         0.735094
 H        -4.263941         2.441964        -0.213819
 H        -2.959798         1.570895         2.215386
 H        -2.520612         4.188081         1.388835
 H        -1.423390         3.324068         2.538091
 H        -0.346019         4.612789         0.234132
 H         0.063050         2.782138         0.369742
 H        -2.242104         1.612541        -1.814177
