19
Iteration:  1686
 O        -0.577778         0.143948         0.410343
 C        -1.720968         0.847797         0.247771
 C        -3.190524         0.374569        -0.121513
 C        -3.360451         1.818993         0.033919
 C        -2.481269         1.945177         1.252823
 C        -1.781184         3.229982         1.440800
 C        -0.747130         3.512398         0.222760
 O        -1.411081         3.182332        -1.059225
 C        -2.009076         1.900468        -0.831003
 H        -0.652805        -0.878366         0.374646
 H        -3.410812         0.100348        -1.169016
 H        -3.514535        -0.345121         0.623808
 H        -4.313002         2.379068        -0.293180
 H        -2.977082         1.500113         2.134197
 H        -2.578976         4.135999         1.294917
 H        -1.302352         3.458087         2.322116
 H        -0.506067         4.497868         0.397827
 H         0.105363         2.818860         0.265990
 H        -2.133318         1.293386        -1.809924
