19
Iteration:  2695
 O        -0.511353         0.269718         0.310318
 C        -1.782477         0.826060         0.161883
 C        -3.194631         0.246453        -0.060390
 C        -3.346460         1.801695        -0.034424
 C        -2.551146         1.937948         1.215830
 C        -1.832818         3.302554         1.461383
 C        -0.745877         3.465661         0.412019
 O        -1.286685         3.138578        -0.951417
 C        -2.135621         1.909410        -0.967613
 H        -0.637479        -0.712504         0.237943
 H        -3.376474        -0.215199        -1.065429
 H        -3.538075        -0.220696         0.844367
 H        -4.203301         2.429668        -0.144881
 H        -2.966107         1.705365         2.166791
 H        -2.545469         4.099383         1.413189
 H        -1.221004         3.237361         2.412481
 H        -0.330504         4.512523         0.189285
 H         0.222085         2.980578         0.591714
 H        -2.160138         1.505419        -1.949976
