19
Iteration:   600
 O        -0.598660         0.134450         0.342696
 C        -1.793447         0.819027         0.352987
 C        -3.377999         0.314051        -0.085604
 C        -3.403823         1.841700         0.046798
 C        -2.425974         2.023375         1.271303
 C        -1.748731         3.371260         1.398317
 C        -0.858859         3.665561         0.089112
 O        -1.089621         2.840758        -0.980289
 C        -2.088153         1.867985        -0.794618
 H        -0.134915         0.581002        -0.396293
 H        -3.450498        -0.056414        -1.131529
 H        -3.865181        -0.400437         0.555227
 H        -4.279497         2.371246        -0.159345
 H        -2.970863         1.716901         2.215107
 H        -2.603535         4.033425         1.810164
 H        -1.079843         3.249110         2.271706
 H        -0.938775         4.841036        -0.183014
 H         0.130701         3.617853         0.470543
 H        -2.019882         1.319297        -1.880518
