19
Iteration:   312
 O        -0.640286         0.306541         0.697166
 C        -1.845642         0.903133         0.199664
 C        -3.275512         0.260367        -0.013017
 C        -3.453070         1.791724        -0.072011
 C        -2.471468         1.953914         1.137213
 C        -1.580872         3.149256         1.402540
 C        -0.684667         3.578442         0.148428
 O        -1.321957         3.083333        -1.062464
 C        -2.154944         1.859916        -0.927952
 H        -0.042905         0.308971        -0.104293
 H        -3.318499        -0.323945        -0.887088
 H        -3.718345        -0.224679         0.911273
 H        -4.385068         2.475845        -0.423749
 H        -2.855245         1.618023         2.100278
 H        -1.967327         3.938938         2.023082
 H        -0.876943         2.670277         2.018188
 H        -0.502449         4.597021         0.021676
 H         0.346391         3.133587         0.302758
 H        -2.293548         1.337211        -1.905017
