19
Iteration:  3219
 O        -0.625571         0.092284         0.329246
 C        -1.757232         0.919212         0.199451
 C        -3.112085         0.275443        -0.106914
 C        -3.444135         1.838218         0.072204
 C        -2.458538         1.901735         1.296875
 C        -1.816583         3.248373         1.374254
 C        -0.700586         3.455546         0.296156
 O        -1.307357         3.159481        -1.012576
 C        -2.151742         2.028858        -0.905349
 H         0.000421         0.425115         1.086935
 H        -3.065298        -0.147741        -1.228363
 H        -3.483560        -0.603690         0.568131
 H        -4.444401         2.184266        -0.087185
 H        -2.658574         1.338260         2.271633
 H        -2.465933         4.133575         1.268648
 H        -1.492605         3.224719         2.389003
 H        -0.638502         4.571315         0.119899
 H         0.244526         2.914943         0.461152
 H        -2.376505         1.649469        -1.936709
