19
Iteration:  2717charge 0 multiplicity 1
 O        -0.557893         0.258813         0.373632
 C        -1.716370         0.912395         0.170636
 C        -3.297609         0.321206        -0.043067
 C        -3.411456         1.844073        -0.061916
 C        -2.399050         1.801093         1.222189
 C        -1.820822         3.164264         1.410424
 C        -0.863545         3.480818         0.332792
 O        -1.304590         3.122687        -0.993912
 C        -1.993618         2.005486        -0.866391
 H        -0.716901        -0.692814         0.337309
 H        -3.194414        -0.246234        -0.997182
 H        -3.836702        -0.104347         0.778362
 H        -4.243784         2.535073        -0.175284
 H        -2.625256         1.349134         2.194163
 H        -2.591120         3.866401         1.208751
 H        -1.296430         3.388033         2.392989
 H        -0.496398         4.569196         0.306491
 H         0.131151         2.964772         0.473535
 H        -1.895121         1.646689        -1.867899
