19
Iteration:  4693charge 0 multiplicity 1
 O        -0.525756         0.151248         0.462119
 C        -1.694492         0.878739         0.077374
 C        -3.157187         0.332061        -0.429470
 C        -3.355341         1.822801        -0.101652
 C        -2.491124         1.770234         1.136882
 C        -1.897300         3.066042         1.479661
 C        -0.877141         3.559612         0.520486
 O        -1.319642         3.238362        -0.860277
 C        -1.975314         2.069018        -0.885586
 H        -0.767672        -0.191498         1.348605
 H        -3.191022         0.116701        -1.497739
 H        -3.654453        -0.374110         0.206485
 H        -4.282634         2.391724        -0.077061
 H        -2.917998         1.327248         2.101121
 H        -2.697377         3.762247         1.766129
 H        -1.207508         2.915142         2.340476
 H        -0.834992         4.663403         0.670308
 H         0.095463         3.180269         0.531570
 H        -2.228243         1.723393        -1.891607
