19
Iteration:  1833charge 0 multiplicity 1
 O        -0.704595        -0.096718         0.247328
 C        -1.698185         0.810064         0.258448
 C        -3.165495         0.396359         0.009964
 C        -3.322541         1.887928        -0.047405
 C        -2.393429         1.943190         1.224922
 C        -1.800678         3.385613         1.422983
 C        -0.895712         3.685195         0.226730
 O        -1.375365         3.125367        -0.952459
 C        -1.957044         1.808864        -0.900545
 H        -0.166061        -0.015212         0.976894
 H        -3.252013        -0.072512        -1.044156
 H        -3.640297        -0.208627         0.893453
 H        -4.331854         2.157636        -0.273865
 H        -2.629748         1.469086         2.235739
 H        -2.725396         4.002071         1.589434
 H        -1.190176         3.505595         2.419592
 H        -0.536567         4.771456        -0.016717
 H         0.010218         3.253076         0.677497
 H        -2.061020         1.392290        -1.822349
