19
Iteration:  3365charge 0 multiplicity 1
 O        -0.571470         0.230685         0.317717
 C        -1.725665         0.924750         0.167423
 C        -3.143646         0.266434        -0.002277
 C        -3.370643         1.826106        -0.149427
 C        -2.519341         1.995236         1.187010
 C        -1.789529         3.241118         1.419215
 C        -0.752211         3.459303         0.410700
 O        -1.367194         3.110056        -0.889737
 C        -2.096375         1.921294        -0.919777
 H        -0.618964        -0.571451        -0.167521
 H        -3.009761        -0.252238        -1.013405
 H        -3.602202        -0.538802         0.749981
 H        -4.426141         2.347143        -0.229386
 H        -2.966092         1.618234         2.147863
 H        -2.534421         3.989223         1.626696
 H        -1.251712         3.277204         2.359709
 H        -0.329775         4.490020         0.286906
 H         0.066208         2.823411         0.644506
 H        -2.134780         1.490091        -1.902893
