19
Iteration:  2964
 O        -0.632212         0.085905         0.374765
 C        -1.757534         0.861706         0.257040
 C        -3.171197         0.271245        -0.073872
 C        -3.321080         1.847422        -0.095782
 C        -2.530577         1.866249         1.254149
 C        -1.655236         3.106505         1.453608
 C        -0.837489         3.663860         0.255858
 O        -1.405962         3.222715        -1.034645
 C        -2.031691         1.942935        -0.920947
 H        -0.276656         0.268865         1.279256
 H        -3.555545        -0.123277        -1.075336
 H        -3.607375        -0.229924         0.836441
 H        -4.207201         2.472875        -0.344818
 H        -2.987723         1.504790         2.118561
 H        -2.288846         3.905451         1.908525
 H        -0.974792         2.925707         2.297517
 H        -0.797533         4.737187         0.378544
 H         0.177190         3.161314         0.195744
 H        -1.813073         1.445310        -1.902141
