19
Iteration:  4044
 O        -0.547666         0.295845         0.375948
 C        -1.859537         0.803643         0.219656
 C        -3.216924         0.303742        -0.014508
 C        -3.361716         1.846881        -0.260953
 C        -2.510459         1.858664         1.069630
 C        -1.657437         3.099289         1.514843
 C        -0.742435         3.594015         0.340096
 O        -1.408177         3.218733        -0.909732
 C        -2.023386         1.911256        -0.886101
 H        -0.452265        -0.517328         0.913034
 H        -3.355768        -0.370095        -0.949828
 H        -3.574670        -0.120209         0.928234
 H        -4.336111         2.169366        -0.619815
 H        -3.182338         1.548553         1.901580
 H        -2.483662         3.703786         1.856032
 H        -1.183501         2.859594         2.452916
 H        -0.604926         4.709409         0.363037
 H         0.222210         3.183007         0.470313
 H        -1.887962         1.330173        -1.868455
