19
Iteration:    17charge 0 multiplicity 1
 O        -0.694374        -0.032312         0.464549
 C        -1.867039         0.765392         0.265668
 C        -3.320852         0.379822         0.030466
 C        -3.280694         2.016175        -0.002477
 C        -2.306940         1.959736         1.205649
 C        -1.443513         3.275170         1.332564
 C        -1.391724         4.061111         0.061664
 O        -0.950633         2.707190        -0.935559
 C        -2.068661         1.788154        -0.922695
 H        -0.498727         0.124859         1.374692
 H        -3.500925        -0.098527        -0.946215
 H        -3.852038        -0.143083         0.856100
 H        -4.138243         2.801406        -0.265268
 H        -2.697571         1.635619         2.189396
 H        -1.809914         3.803984         2.236374
 H        -0.392177         3.007656         1.543924
 H        -2.260946         4.644660        -0.363287
 H        -0.578230         4.808145        -0.038685
 H        -2.379690         1.373068        -1.995529
