19
Iteration:  4102charge 0 multiplicity 1
 O        -0.592936         0.075134         0.401289
 C        -1.749794         0.884733         0.206770
 C        -3.265063         0.324982        -0.158900
 C        -3.302653         1.808702        -0.024577
 C        -2.408437         1.762475         1.246818
 C        -1.891174         3.195395         1.411118
 C        -0.766196         3.532088         0.316658
 O        -1.306219         3.268250        -0.973554
 C        -2.056303         2.019266        -0.948633
 H        -0.270130         0.207772         1.337953
 H        -3.295169        -0.257268        -1.058547
 H        -3.637826        -0.355065         0.646756
 H        -4.231578         2.403142        -0.147572
 H        -2.868726         1.192190         2.115160
 H        -2.665119         3.952747         1.327725
 H        -1.329319         3.419982         2.274056
 H        -0.693143         4.624465         0.221884
 H         0.244647         3.034400         0.499196
 H        -2.185419         1.678779        -1.952234
