19
Iteration:   543charge 0 multiplicity 1
 O        -0.649700         0.105779         0.583570
 C        -1.814543         0.824029         0.258884
 C        -3.228446         0.310319         0.027518
 C        -3.373346         1.909469        -0.072360
 C        -2.505441         1.963798         1.210850
 C        -1.670233         3.252872         1.438904
 C        -0.766829         3.642205         0.188212
 O        -1.300504         3.064505        -1.084759
 C        -2.067345         1.853642        -0.961515
 H        -0.210465        -0.137306        -0.272211
 H        -3.334856        -0.261883        -0.902152
 H        -3.644423        -0.208622         0.888464
 H        -4.309261         2.405082        -0.313393
 H        -2.877114         1.446170         2.145130
 H        -2.365358         4.118668         1.715466
 H        -0.960211         3.134116         2.277342
 H        -0.802878         4.679656        -0.105715
 H         0.219212         3.295349         0.223859
 H        -1.996241         1.452449        -2.012040
