19
Iteration:  4334
 O        -0.528400         0.090318         0.390368
 C        -1.780553         0.856122         0.195443
 C        -3.170889         0.331901        -0.092474
 C        -3.341552         1.865196        -0.201736
 C        -2.556753         1.876427         1.092660
 C        -1.771783         3.160949         1.478230
 C        -0.754212         3.562570         0.401090
 O        -1.443443         3.208790        -0.817482
 C        -2.026735         1.884999        -0.939004
 H         0.152504         0.810644         0.055541
 H        -3.309204        -0.287018        -1.039664
 H        -3.641926        -0.084092         0.842019
 H        -4.334275         2.193858        -0.550819
 H        -3.107753         1.461896         2.019631
 H        -2.335256         4.139635         1.546320
 H        -1.322369         2.996649         2.464165
 H        -0.591966         4.667756         0.435126
 H         0.208246         3.027943         0.509962
 H        -1.938599         1.551269        -1.951063
