19
Iteration:  1169
 O        -0.601411         0.191477         0.397612
 C        -1.826438         0.876177         0.258857
 C        -3.268387         0.314716        -0.069433
 C        -3.409433         1.842763        -0.046950
 C        -2.527711         1.932505         1.189710
 C        -1.703106         3.259332         1.487777
 C        -0.789228         3.624662         0.236546
 O        -1.255942         3.004703        -1.006303
 C        -2.027673         1.863586        -0.865187
 H         0.031934         0.348776        -0.264813
 H        -3.438475        -0.234958        -1.032130
 H        -3.705021        -0.315731         0.761698
 H        -4.316364         2.501246        -0.085032
 H        -2.822407         1.407320         2.134267
 H        -2.434807         4.042052         1.764187
 H        -1.023530         2.748435         2.221535
 H        -0.626830         4.738280         0.101325
 H         0.278462         3.343727         0.418788
 H        -2.199452         1.441008        -1.870128
