19
Iteration:  3997charge 0 multiplicity 1
 O        -0.598884         0.248202         0.504173
 C        -1.772359         0.873255         0.282798
 C        -3.083782         0.278515        -0.220540
 C        -3.354628         1.791680        -0.013037
 C        -2.500874         1.840699         1.258816
 C        -1.835167         3.183248         1.389779
 C        -0.704339         3.451388         0.259381
 O        -1.350091         3.204057        -0.970101
 C        -2.137438         2.070921        -0.939988
 H        -0.669469        -0.679384         0.058548
 H        -2.926722        -0.149380        -1.252371
 H        -3.734127        -0.388849         0.400203
 H        -4.286741         2.329964        -0.079861
 H        -2.775817         1.310103         2.158165
 H        -2.472336         4.069015         1.422259
 H        -1.321860         3.305233         2.397904
 H        -0.242340         4.399644         0.389447
 H         0.025946         2.754156         0.443972
 H        -2.345636         1.674435        -1.979980
