19
Iteration:  1230charge 0 multiplicity 1
 O        -0.631774         0.076592         0.613953
 C        -1.809260         0.842526         0.297505
 C        -3.134287         0.292220        -0.149064
 C        -3.475738         1.763651        -0.108855
 C        -2.502302         1.950663         1.185564
 C        -1.504368         3.239661         1.483506
 C        -0.795144         3.589651         0.213317
 O        -1.428111         3.204485        -1.025536
 C        -2.057441         1.995334        -0.970074
 H        -0.904062        -0.731452         0.209669
 H        -3.076993        -0.224914        -1.110821
 H        -3.641868        -0.313016         0.592299
 H        -4.427082         2.237667        -0.389378
 H        -2.760759         1.539147         2.183999
 H        -1.986055         4.097813         2.014240
 H        -0.791033         2.918421         2.185900
 H        -0.903781         4.696556         0.083516
 H         0.276987         3.342166         0.133888
 H        -2.085275         1.587227        -2.029429
