19
Iteration:  1694
 O        -0.545184         0.162333         0.436375
 C        -1.754983         0.902087         0.255468
 C        -3.199755         0.291506        -0.106524
 C        -3.395204         1.867516        -0.022565
 C        -2.496893         1.917523         1.265209
 C        -1.730083         3.258726         1.439152
 C        -0.756313         3.454768         0.244416
 O        -1.398531         3.178143        -1.031734
 C        -2.076514         1.953481        -0.909743
 H        -0.511008        -0.835063         0.422560
 H        -3.252431        -0.049164        -1.125415
 H        -3.557474        -0.394433         0.640045
 H        -4.439308         2.296553        -0.206717
 H        -2.907747         1.532107         2.198666
 H        -2.558811         3.990218         1.461377
 H        -1.218548         3.319529         2.423818
 H        -0.287181         4.444405         0.008153
 H         0.088660         2.765213         0.375920
 H        -1.936623         1.472232        -1.951627
