19
Iteration:   799charge 0 multiplicity 1
 O        -0.706224        -0.036405         0.482688
 C        -1.752016         0.775947         0.166623
 C        -3.262345         0.363777         0.058710
 C        -3.326284         1.842201         0.013931
 C        -2.302856         1.871412         1.091346
 C        -1.825557         3.322683         1.296537
 C        -0.803868         3.676277         0.283389
 O        -1.294077         3.161245        -1.009246
 C        -2.025649         1.919068        -0.820582
 H        -0.096565        -0.026139        -0.287314
 H        -3.659096        -0.194912        -0.820247
 H        -3.738981        -0.144872         0.919369
 H        -4.161820         2.574728        -0.083522
 H        -2.655175         1.479983         2.114664
 H        -2.844838         3.888174         1.215509
 H        -1.292182         3.523802         2.248107
 H        -0.662143         4.780401         0.028239
 H         0.113229         3.163628         0.619405
 H        -2.009402         1.421141        -1.900360
