19
Iteration:  1458charge 0 multiplicity 1
 O        -0.566430         0.235725         0.389686
 C        -1.839172         0.838478         0.251969
 C        -3.316339         0.330912        -0.048213
 C        -3.320817         1.833766        -0.065451
 C        -2.444060         1.900066         1.201139
 C        -1.730272         3.258872         1.468704
 C        -0.870417         3.652740         0.225587
 O        -1.218365         3.015858        -0.973430
 C        -2.035194         1.861133        -0.877085
 H        -0.624591        -0.582794        -0.222732
 H        -3.386157        -0.063146        -1.102058
 H        -3.769439        -0.235290         0.795161
 H        -4.185691         2.600614        -0.182156
 H        -2.988701         1.436027         2.029182
 H        -2.416899         4.021263         1.716454
 H        -1.049914         3.011933         2.396613
 H        -0.848372         4.752638         0.166150
 H         0.121110         3.191020         0.405353
 H        -2.208401         1.458587        -1.835126
