19
Iteration:  4493
 O        -0.521950         0.186699         0.478595
 C        -1.718304         0.896046         0.084168
 C        -3.093177         0.323823        -0.332390
 C        -3.367937         1.862839        -0.042608
 C        -2.450563         1.810644         1.214882
 C        -1.909471         3.124619         1.484687
 C        -0.853126         3.492488         0.444414
 O        -1.316776         3.186003        -0.925871
 C        -2.066721         2.054517        -0.922493
 H        -0.627106        -0.746478         0.582924
 H        -3.268946        -0.039697        -1.356133
 H        -3.657168        -0.244732         0.423848
 H        -4.285001         2.510870        -0.010303
 H        -2.901699         1.138500         2.026362
 H        -2.700946         3.902880         1.497103
 H        -1.330060         3.334656         2.423883
 H        -0.643862         4.566782         0.488346
 H         0.025373         2.870744         0.599039
 H        -2.267103         1.697330        -1.981527
