19
Iteration:  4688charge 0 multiplicity 1
 O        -0.516618         0.183125         0.456268
 C        -1.713480         0.864647         0.099301
 C        -3.167141         0.345315        -0.443688
 C        -3.348993         1.842248        -0.065579
 C        -2.500978         1.797398         1.128817
 C        -1.837893         3.044056         1.471185
 C        -0.930189         3.580951         0.477189
 O        -1.307300         3.217779        -0.816891
 C        -1.982843         2.052510        -0.903040
 H        -0.916869        -0.439782         1.180348
 H        -3.120499        -0.029597        -1.498828
 H        -3.697456        -0.430378         0.181311
 H        -4.336030         2.338494        -0.181499
 H        -2.711712         1.258904         2.041875
 H        -2.709827         3.739791         1.566516
 H        -1.347341         3.089196         2.471302
 H        -0.836211         4.609364         0.845897
 H         0.195049         3.161083         0.627471
 H        -2.145918         1.697169        -1.932619
