19
Iteration:  3150charge 0 multiplicity 1
 O        -0.659337         0.114628         0.420694
 C        -1.830042         0.907583         0.258349
 C        -3.135521         0.217871        -0.051646
 C        -3.404674         1.807034        -0.063980
 C        -2.502261         1.915328         1.196075
 C        -1.690265         3.180268         1.469416
 C        -0.772385         3.582000         0.242401
 O        -1.379423         3.200313        -1.015817
 C        -2.012435         1.966884        -0.896900
 H         0.064929         0.485412        -0.109898
 H        -3.257934        -0.366934        -1.031362
 H        -3.679893        -0.246173         0.775738
 H        -4.240529         2.493603        -0.498936
 H        -2.819845         1.386234         2.213847
 H        -2.347666         3.868665         2.000854
 H        -0.919192         2.928332         2.251945
 H        -0.731211         4.650301         0.362080
 H         0.156567         3.061214         0.384784
 H        -2.037759         1.504172        -1.966632
