19
Iteration:   834charge 0 multiplicity 1
 O        -0.698270         0.081007         0.592994
 C        -1.783762         0.914790         0.269159
 C        -3.126277         0.323122        -0.083867
 C        -3.350753         1.874499        -0.104893
 C        -2.425359         1.934347         1.196547
 C        -1.619211         3.234019         1.472726
 C        -0.832827         3.556931         0.178060
 O        -1.423187         3.153931        -1.076169
 C        -2.066281         1.901337        -0.869832
 H        -0.374071        -0.277157        -0.246260
 H        -3.156513        -0.117095        -1.048307
 H        -3.646766        -0.265057         0.687646
 H        -4.318797         2.356678        -0.365935
 H        -3.014163         1.556918         2.000729
 H        -2.285077         4.024263         1.924445
 H        -0.804237         3.000194         2.274405
 H        -0.570270         4.564609         0.155349
 H         0.068341         2.869899         0.264565
 H        -2.103624         1.390160        -1.899465
