19
Iteration:  3923
 O        -0.609894         0.172109         0.388669
 C        -1.794808         0.912851         0.287892
 C        -3.252516         0.241667        -0.108721
 C        -3.378276         1.838013        -0.099878
 C        -2.525643         1.915049         1.178867
 C        -1.754358         3.153731         1.484497
 C        -0.835194         3.610813         0.282757
 O        -1.246557         3.060022        -0.977759
 C        -1.962907         1.943583        -0.873267
 H         0.027184         0.663233        -0.086062
 H        -3.352957        -0.152874        -1.163597
 H        -3.977600        -0.154416         0.600096
 H        -4.339805         2.269465        -0.273151
 H        -3.024619         1.472404         2.087560
 H        -2.211519         4.027762         1.935719
 H        -1.051440         2.801960         2.243736
 H        -1.049507         4.735388         0.172232
 H         0.298941         3.519563         0.646797
 H        -2.164700         1.435230        -1.857974
