19
Iteration:  3373charge 0 multiplicity 1
 O        -0.525355         0.208654         0.299640
 C        -1.822178         0.929741         0.253027
 C        -3.090267         0.212234        -0.062325
 C        -3.410834         1.799592        -0.102598
 C        -2.489703         2.011142         1.186756
 C        -1.809641         3.277703         1.466121
 C        -0.726837         3.455031         0.369794
 O        -1.342660         3.141014        -0.955501
 C        -2.118887         1.967513        -0.888382
 H        -0.781584        -0.630563         0.016323
 H        -3.100952        -0.222929        -1.073674
 H        -3.551789        -0.491341         0.688253
 H        -4.366858         2.299851        -0.256526
 H        -3.097811         1.509921         1.963814
 H        -2.498748         4.172634         1.443853
 H        -1.344595         3.163288         2.413527
 H        -0.216080         4.425543         0.601257
 H        -0.006928         2.656733         0.577856
 H        -2.118451         1.424977        -1.846521
