19
Iteration:  4778charge 0 multiplicity 1
 O        -0.547348         0.313708         0.409733
 C        -1.762200         0.932893         0.098334
 C        -3.070937         0.315190        -0.344279
 C        -3.361337         1.851658        -0.136588
 C        -2.515753         1.728738         1.162823
 C        -1.997018         3.032665         1.523378
 C        -0.848049         3.480167         0.505671
 O        -1.245822         3.248739        -0.822965
 C        -1.972619         2.033349        -0.918893
 H        -0.746752        -0.654449         0.376945
 H        -3.141729        -0.002315        -1.395742
 H        -3.661780        -0.339345         0.297721
 H        -4.360386         2.278350        -0.091093
 H        -2.914361         1.060334         1.931124
 H        -2.868236         3.707311         1.651646
 H        -1.482650         3.088268         2.502005
 H        -0.400231         4.486921         0.575512
 H         0.059767         2.730792         0.784428
 H        -2.045656         1.890942        -2.000200
