19
Iteration:  1008
 O        -0.667748         0.025568         0.443676
 C        -1.834884         0.877236         0.245324
 C        -3.183918         0.296662        -0.061789
 C        -3.406861         1.891831        -0.082785
 C        -2.412163         1.931064         1.175839
 C        -1.535717         3.166739         1.482745
 C        -0.897473         3.722899         0.209468
 O        -1.322705         3.047380        -0.996938
 C        -2.117230         1.918450        -0.914845
 H        -0.187094         0.406844         1.178746
 H        -3.077781        -0.064965        -1.057249
 H        -3.609753        -0.400095         0.672839
 H        -4.412162         2.340169        -0.325651
 H        -3.045273         1.873118         2.084824
 H        -2.178104         3.904876         1.908214
 H        -0.804817         2.924623         2.099677
 H        -1.010293         4.742095         0.030108
 H         0.144558         3.596566         0.232836
 H        -1.914082         1.567003        -1.917673
