19
Iteration:  4725charge 0 multiplicity 1
 O        -0.657135         0.099768         0.374859
 C        -1.769157         0.925787         0.144437
 C        -3.041323         0.234519        -0.272239
 C        -3.317523         1.817035        -0.330131
 C        -2.524858         1.853042         1.153495
 C        -1.833826         3.058567         1.586651
 C        -0.855360         3.481564         0.581105
 O        -1.412454         3.334405        -0.833217
 C        -1.931810         2.023018        -0.928389
 H         0.076819         0.694721         0.570730
 H        -2.995200        -0.315678        -1.209012
 H        -3.647095        -0.277821         0.447972
 H        -4.273776         2.318671        -0.479143
 H        -3.171616         1.461005         1.986141
 H        -2.505947         3.890160         1.878333
 H        -1.226358         2.888407         2.515208
 H        -0.751085         4.572623         0.578491
 H         0.153717         3.002956         0.530672
 H        -1.861141         1.823020        -2.000809
