19
Iteration:   442
 O        -0.550399         0.298735         0.431216
 C        -1.836972         0.860742         0.349072
 C        -3.284639         0.359484        -0.027938
 C        -3.368994         1.872979        -0.109065
 C        -2.463468         1.949720         1.243316
 C        -1.757914         3.260201         1.398976
 C        -0.728658         3.481258         0.171003
 O        -1.331117         3.007873        -0.960599
 C        -2.034892         1.796784        -0.900595
 H        -0.367874        -0.238660        -0.332198
 H        -3.352495        -0.101257        -1.016607
 H        -3.894553        -0.298236         0.657688
 H        -4.337578         2.541795        -0.246221
 H        -2.919496         1.721581         2.252112
 H        -2.500895         4.110655         1.545949
 H        -0.980606         3.284668         2.240395
 H        -0.633044         4.460155        -0.037369
 H         0.185210         3.023632         0.492232
 H        -1.982477         1.342725        -1.872139
