19
Iteration:  1436charge 0 multiplicity 1
 O        -0.553961         0.062779         0.532424
 C        -1.753571         0.844671         0.237212
 C        -3.307748         0.400598        -0.065360
 C        -3.326828         1.945405        -0.103783
 C        -2.429923         1.877094         1.228147
 C        -1.694154         3.153719         1.472536
 C        -0.856978         3.655633         0.206413
 O        -1.368862         3.109585        -1.025231
 C        -2.017830         1.850573        -0.923330
 H        -0.055617        -0.058770        -0.269093
 H        -3.539924        -0.084464        -1.051488
 H        -3.884415         0.054091         0.822164
 H        -4.289945         2.498591        -0.430351
 H        -2.931522         1.410875         2.079774
 H        -2.468782         3.845663         1.750055
 H        -1.013364         3.007654         2.433845
 H        -1.153935         4.682835         0.285106
 H         0.252318         3.503953         0.208065
 H        -2.097559         1.371538        -1.855742
