19
Iteration:  1046charge 0 multiplicity 1
 O        -0.603047         0.185857         0.576820
 C        -1.788437         0.812989         0.220305
 C        -3.301981         0.391791        -0.019582
 C        -3.354834         1.956651        -0.163879
 C        -2.393473         1.855384         1.147455
 C        -1.524684         3.007504         1.414967
 C        -0.896496         3.597198         0.197063
 O        -1.410158         3.138818        -1.005628
 C        -2.068375         1.907267        -0.968022
 H        -0.317671         0.598729         1.381473
 H        -3.455226        -0.154450        -1.001185
 H        -3.641576        -0.274061         0.774893
 H        -4.233082         2.544785        -0.192820
 H        -2.926230         1.430551         2.006596
 H        -2.245953         3.735264         1.907888
 H        -0.694501         2.788234         2.228382
 H        -1.056320         4.746583         0.246768
 H         0.234710         3.419066         0.230228
 H        -2.112332         1.349796        -1.962172
