19
Iteration:  2069
 O        -0.514326         0.205754         0.468961
 C        -1.791145         0.903365         0.187992
 C        -3.267903         0.300022        -0.130082
 C        -3.405917         1.842709        -0.099944
 C        -2.502250         1.879654         1.243202
 C        -1.585000         3.195511         1.548364
 C        -0.839837         3.629125         0.214564
 O        -1.364144         3.058191        -1.043885
 C        -2.090064         1.914979        -0.911391
 H        -0.787751        -0.278758         1.334882
 H        -3.291323        -0.180268        -1.091052
 H        -3.651352        -0.395232         0.603424
 H        -4.232141         2.537383        -0.327226
 H        -2.721462         1.396245         2.187085
 H        -2.289461         3.911665         1.978422
 H        -0.785194         3.105769         2.288970
 H        -0.881402         4.649771        -0.004203
 H         0.194640         3.336064         0.211283
 H        -2.308308         1.438326        -1.916134
