19
Iteration:  3686
 C        -0.121315         0.100305         0.302145
 C         1.306003        -0.115221        -0.227543
 C         1.723279        -1.430091        -0.697425
 C         3.158409        -1.026852        -1.082395
 C         3.504773        -0.183501         0.181434
 C         4.014219         0.980005        -0.732749
 C         3.016660         0.421768        -1.678747
 O         1.623844         0.706756        -1.353169
 O         2.264512         0.159101         0.820874
 H        -0.177493        -0.448471         1.242040
 H        -0.436212         1.114305         0.584302
 H        -0.969522        -0.368255        -0.313093
 H         1.535551        -2.287518         0.035531
 H         1.208751        -1.912833        -1.602257
 H         3.849739        -1.778471        -1.384734
 H         4.260162        -0.383215         0.993101
 H         3.854478         2.002131        -0.433615
 H         5.036650         0.933866        -1.097126
 H         3.008702         0.581432        -2.751960
