19
Iteration:  2765
 C        -0.145212         0.111285         0.243017
 C         1.314845        -0.106677        -0.291752
 C         1.662780        -1.525788        -0.624947
 C         3.126311        -1.068101        -1.043375
 C         3.626903        -0.194236         0.160161
 C         4.019355         0.985864        -0.757076
 C         2.925753         0.481570        -1.727776
 O         1.635555         0.805159        -1.329875
 O         2.306453         0.118298         0.856080
 H        -0.377328        -0.599989         1.087039
 H        -0.185283         1.023675         0.824598
 H        -1.056617         0.036196        -0.376119
 H         1.708384        -2.064950         0.249663
 H         1.043746        -2.066453        -1.371864
 H         3.791637        -1.794967        -1.297339
 H         4.301543        -0.601211         0.958444
 H         3.963283         2.050178        -0.459645
 H         4.984688         0.730472        -1.125144
 H         2.994625         0.570419        -2.877371
