19
Iteration:  4107charge 0 multiplicity 1
 C        -0.118186         0.119030         0.237801
 C         1.290511        -0.092909        -0.157546
 C         1.795689        -1.413387        -0.707853
 C         3.128659        -0.993881        -1.033239
 C         3.568219        -0.167258         0.241244
 C         3.984986         0.938240        -0.729810
 C         2.913884         0.329369        -1.747081
 O         1.575168         0.739877        -1.327399
 O         2.319296         0.127940         0.831981
 H        -0.367411        -0.243426         1.201150
 H        -0.252279         1.149115         0.110494
 H        -0.845973        -0.209430        -0.469578
 H         1.852385        -2.379684        -0.108614
 H         1.157581        -1.617004        -1.672462
 H         3.854102        -1.634080        -1.435817
 H         4.241519        -0.747105         0.891044
 H         3.868432         1.931208        -0.368556
 H         4.978609         0.820706        -1.123100
 H         3.042842         0.675774        -2.800038
