19
Iteration:  3409charge 0 multiplicity 1
 C        -0.161807         0.196903         0.242751
 C         1.255360        -0.188817        -0.285054
 C         1.840114        -1.595226        -0.687144
 C         3.126580        -1.026824        -0.998216
 C         3.583984        -0.124317         0.214310
 C         3.991964         0.963247        -0.757765
 C         2.963816         0.424484        -1.771461
 O         1.638388         0.798815        -1.319418
 O         2.263838         0.150072         0.880502
 H        -0.507399        -0.615983         0.943541
 H        -0.297565         0.962820         0.992654
 H        -1.056699         0.273327        -0.402628
 H         1.764654        -2.203075         0.232625
 H         1.161137        -1.955297        -1.494055
 H         3.848754        -1.636502        -1.547278
 H         4.292976        -0.697755         0.811720
 H         3.966431         2.004934        -0.497648
 H         4.920607         0.671921        -1.170316
 H         2.881768         0.486039        -2.800117
