19
Iteration:  2052charge 0 multiplicity 1
 C        -0.126483         0.249726         0.308270
 C         1.290093        -0.094458        -0.191360
 C         1.725233        -1.592539        -0.868574
 C         3.150404        -1.132983        -0.941334
 C         3.626578        -0.163472         0.150740
 C         3.917612         1.052404        -0.735019
 C         2.894737         0.370659        -1.720875
 O         1.607877         0.827714        -1.259523
 O         2.347915         0.055498         0.832385
 H        -0.279991        -0.590368         1.064768
 H        -0.015403         1.324456         0.691360
 H        -0.795873         0.161740        -0.513848
 H         1.397969        -2.374983        -0.259217
 H         1.331651        -1.760020        -1.812113
 H         3.928437        -1.728092        -1.429058
 H         4.377230        -0.473876         0.901702
 H         3.616568         2.055952        -0.308339
 H         4.902257         0.859644        -1.130400
 H         3.113363         0.383152        -2.852691
