19
Iteration:  2066
 C        -0.109243         0.226038         0.275789
 C         1.334255        -0.096073        -0.185644
 C         1.750687        -1.522961        -0.793027
 C         3.172731        -1.048388        -1.110252
 C         3.598883        -0.228606         0.254167
 C         3.911332         0.933051        -0.743954
 C         2.903938         0.345877        -1.663428
 O         1.577230         0.780255        -1.240509
 O         2.374655         0.120409         0.803714
 H        -0.685039        -0.227284         1.131038
 H        -0.304936         1.329611         0.570968
 H        -0.810422         0.058848        -0.692028
 H         1.712457        -2.433613        -0.194667
 H         1.186226        -1.633903        -1.732975
 H         3.854945        -1.636010        -1.716533
 H         4.315243        -0.553735         1.032199
 H         3.634948         1.922673        -0.436639
 H         4.905394         1.107342        -1.086266
 H         2.823576         0.604708        -2.748594
