19
Iteration:  2073
 C        -0.091473         0.222106         0.243652
 C         1.326774        -0.146118        -0.142376
 C         1.751288        -1.458446        -0.760893
 C         3.136185        -1.000967        -1.168140
 C         3.600972        -0.249757         0.227233
 C         3.975126         0.941468        -0.726604
 C         2.903233         0.376320        -1.717019
 O         1.570421         0.741371        -1.243338
 O         2.314834         0.134917         0.847407
 H        -0.549046        -0.377419         1.086200
 H        -0.189293         1.312190         0.421650
 H        -0.735540        -0.002514        -0.516933
 H         1.712730        -2.295563        -0.095467
 H         1.122426        -1.724667        -1.578727
 H         3.877992        -1.683649        -1.580470
 H         4.323115        -0.618276         0.965555
 H         3.597828         1.897490        -0.235281
 H         4.960305         0.957363        -1.248468
 H         3.098574         0.558941        -2.813194
