19
Iteration:  2206charge 0 multiplicity 1
 C        -0.083784         0.197065         0.276599
 C         1.331193        -0.121131        -0.151364
 C         1.660830        -1.441273        -0.754650
 C         3.136411        -0.990766        -1.052174
 C         3.551007        -0.192261         0.209359
 C         3.994967         0.999763        -0.738450
 C         2.949554         0.397797        -1.727363
 O         1.578442         0.621720        -1.346118
 O         2.307338         0.135422         0.871474
 H        -0.291159        -0.661223         0.939005
 H         0.051982         1.085452         0.934486
 H        -0.695881         0.283166        -0.658471
 H         1.662677        -2.402423        -0.193671
 H         1.036322        -1.511796        -1.683351
 H         3.800291        -1.739323        -1.510475
 H         4.284256        -0.697875         0.857159
 H         3.903745         2.112546        -0.407884
 H         5.098091         0.893728        -1.033333
 H         3.098339         0.591639        -2.853486
