19
Iteration:  4665
 C        -0.026899         0.147803         0.186257
 C         1.321182        -0.124264        -0.249712
 C         1.677548        -1.510123        -0.683196
 C         3.204035        -1.066138        -0.989811
 C         3.516388        -0.080931         0.180395
 C         3.977239         1.014991        -0.751900
 C         2.895178         0.333555        -1.740209
 O         1.634467         0.746201        -1.272396
 O         2.255950         0.128400         0.852059
 H        -0.459737        -0.614159         0.891624
 H        -0.092143         1.153747         0.672735
 H        -0.834696         0.137832        -0.654609
 H         1.636397        -2.261370         0.099111
 H         1.287575        -1.869799        -1.549957
 H         4.001343        -1.851108        -1.152637
 H         4.322352        -0.433951         0.879308
 H         3.768740         2.053921        -0.341944
 H         5.035466         0.831276        -1.094796
 H         2.917909         0.543363        -2.908553
