19
Iteration:  4136charge 0 multiplicity 1
 C        -0.088701         0.107407         0.327636
 C         1.337604        -0.082701        -0.252387
 C         1.690209        -1.553229        -0.733357
 C         3.074706        -1.111130        -1.045603
 C         3.579169        -0.117530         0.253891
 C         3.941877         1.010496        -0.684422
 C         2.978604         0.352541        -1.716049
 O         1.648520         0.819428        -1.369559
 O         2.286948         0.137072         0.768224
 H        -0.159869        -0.227547         1.373775
 H        -0.203119         1.244700         0.340419
 H        -0.853186        -0.410302        -0.362521
 H         1.766141        -2.383962        -0.022140
 H         0.968950        -2.061471        -1.283105
 H         3.933102        -1.666964        -1.589954
 H         4.193199        -0.602941         1.018905
 H         3.736487         2.063522        -0.356249
 H         4.989182         1.012354        -1.033300
 H         3.107348         0.721676        -2.730504
