19
Iteration:  2042
 C        -0.006229         0.207274         0.322740
 C         1.311982        -0.159121        -0.237715
 C         1.670091        -1.497418        -0.803559
 C         3.154229        -1.042676        -1.013272
 C         3.561376        -0.155234         0.186866
 C         3.969650         1.023512        -0.780678
 C         2.947728         0.377642        -1.736484
 O         1.627025         0.785472        -1.306387
 O         2.243112         0.025269         0.875225
 H        -0.389348        -0.489041         1.154510
 H        -0.128078         1.155595         0.956738
 H        -0.882329         0.207459        -0.324649
 H         1.471941        -2.271821        -0.122748
 H         1.301501        -1.722040        -1.745963
 H         3.877010        -1.812511        -1.227775
 H         4.345226        -0.471105         0.892398
 H         3.803731         2.031224        -0.331429
 H         4.950233         1.127720        -1.181892
 H         3.029080         0.482215        -2.891120
