19
Iteration:  3532charge 0 multiplicity 1
 C        -0.098787         0.106061         0.229548
 C         1.321819        -0.173244        -0.175673
 C         1.599660        -1.492854        -0.728873
 C         3.134323        -1.072042        -0.966922
 C         3.553564        -0.205574         0.224702
 C         3.950528         1.054291        -0.753664
 C         2.997696         0.380524        -1.745545
 O         1.645690         0.798777        -1.358088
 O         2.338294         0.147335         0.854802
 H        -0.333363        -0.240659         1.250073
 H        -0.217542         1.204186         0.259277
 H        -0.759439        -0.398734        -0.459208
 H         1.616716        -2.317144         0.021385
 H         1.257990        -1.780996        -1.755283
 H         3.945213        -1.577409        -1.540821
 H         4.256947        -0.594270         0.982033
 H         3.610851         1.973045        -0.278142
 H         4.930812         1.066863        -1.139809
 H         3.051334         0.622650        -2.752453
