19
Iteration:  1967charge 0 multiplicity 1
 C        -0.125197         0.112234         0.277286
 C         1.352339        -0.089251        -0.138040
 C         1.730252        -1.481579        -0.777577
 C         3.111628        -1.044966        -1.083836
 C         3.557859        -0.199341         0.203014
 C         3.972309         0.907069        -0.816580
 C         2.919936         0.424813        -1.811625
 O         1.653716         0.787932        -1.286263
 O         2.287163         0.132320         0.970770
 H        -0.450881        -0.525921         1.214626
 H        -0.377333         1.220703         0.619506
 H        -0.803883        -0.067127        -0.568570
 H         1.742094        -2.309538        -0.047641
 H         1.146632        -1.681249        -1.693896
 H         3.887391        -1.660044        -1.463319
 H         4.317725        -0.620854         0.866974
 H         3.846663         1.961732        -0.548633
 H         4.987602         0.922841        -1.119505
 H         3.028912         0.748355        -2.901610
