19
Iteration:  3578charge 0 multiplicity 1
 C        -0.163357         0.137404         0.324974
 C         1.320664        -0.187635        -0.250851
 C         1.745996        -1.612184        -0.760227
 C         3.132974        -1.044760        -1.045054
 C         3.568927        -0.123516         0.265845
 C         4.076285         1.008943        -0.737934
 C         2.998872         0.400908        -1.710928
 O         1.573876         0.778442        -1.332757
 O         2.244880         0.213094         0.792683
 H        -0.439103        -0.460585         1.136558
 H        -0.114308         1.096839         0.759847
 H        -0.939943         0.032819        -0.449867
 H         1.660118        -2.411368         0.063866
 H         1.104174        -1.634817        -1.678218
 H         3.894059        -1.717306        -1.336136
 H         4.244641        -0.697837         0.954987
 H         3.853148         2.007440        -0.398828
 H         5.101578         0.714000        -1.104653
 H         2.977766         0.521820        -2.803397
