19
Iteration:  1403
 C        -0.040722         0.205157         0.270267
 C         1.356734        -0.105825        -0.184914
 C         1.695397        -1.483523        -0.810223
 C         3.192709        -1.068454        -1.071646
 C         3.609233        -0.256573         0.190268
 C         3.895819         1.060250        -0.748606
 C         2.839027         0.402263        -1.644027
 O         1.540394         0.796016        -1.217485
 O         2.365824         0.028337         0.812331
 H        -0.098888        -0.304140         1.175643
 H        -0.039611         1.254212         0.354753
 H        -0.783616        -0.062497        -0.499153
 H         1.363995        -2.227941        -0.081424
 H         1.304392        -1.623297        -1.828253
 H         3.798819        -1.784885        -1.687431
 H         4.355229        -0.692634         0.826771
 H         3.716409         2.053652        -0.297398
 H         4.892165         0.847009        -1.285926
 H         3.019807         0.570276        -2.665687
