19
Iteration:  1278
 C        -0.107079         0.220881         0.368922
 C         1.231939        -0.156302        -0.246276
 C         1.758029        -1.451813        -0.751717
 C         3.149064        -0.939609        -1.058160
 C         3.653926        -0.254829         0.143405
 C         3.990975         0.963626        -0.784426
 C         2.859766         0.435147        -1.731175
 O         1.617955         0.785537        -1.282020
 O         2.284143        -0.008165         0.879847
 H        -0.303395        -0.709147         1.082717
 H         0.181052         1.221431         0.912116
 H        -0.868500         0.359463        -0.494318
 H         1.737713        -2.159739         0.068167
 H         1.337892        -1.857844        -1.677221
 H         3.777940        -1.545450        -1.676603
 H         4.369211        -0.731934         0.853622
 H         3.691933         1.983868        -0.468115
 H         5.025520         0.916954        -1.064594
 H         2.782687         0.537608        -2.849729
