19
Iteration:   494
 C         0.001397         0.162416         0.463349
 C         1.281848        -0.080831        -0.228545
 C         1.715433        -1.467996        -0.850595
 C         3.148592        -1.062773        -1.056822
 C         3.605416        -0.232858         0.155740
 C         3.888306         0.995876        -0.733840
 C         2.870244         0.408801        -1.706523
 O         1.545522         0.844145        -1.319930
 O         2.386639        -0.016442         0.841350
 H        -0.244824        -0.647037         1.099541
 H         0.140445         1.125657         1.026082
 H        -0.748086         0.351367        -0.426081
 H         1.316437        -2.258870        -0.197636
 H         1.303876        -1.598571        -1.862311
 H         3.934442        -1.612659        -1.592138
 H         4.390638        -0.540549         0.955973
 H         3.623433         1.968256        -0.218173
 H         4.860244         1.013227        -1.214455
 H         2.980737         0.541100        -2.889632
