19
Iteration:   744charge 0 multiplicity 1
 C         0.000564         0.175943         0.389664
 C         1.369005        -0.102240        -0.234555
 C         1.705815        -1.505834        -0.850801
 C         3.117374        -1.068350        -1.028865
 C         3.620088        -0.260311         0.141767
 C         3.925963         0.984339        -0.758960
 C         2.842030         0.412739        -1.734289
 O         1.495421         0.908474        -1.242453
 O         2.396177         0.012496         0.862541
 H        -0.417623        -0.462717         1.131468
 H        -0.030815         1.160007         0.818225
 H        -0.705831        -0.152635        -0.446723
 H         1.432580        -2.362826        -0.239916
 H         1.157078        -1.641601        -1.782466
 H         3.811077        -1.718763        -1.557267
 H         4.427253        -0.679188         0.778911
 H         3.718735         2.012740        -0.138038
 H         4.889767         1.143957        -1.295199
 H         3.089586         0.591450        -2.738365
