19
Iteration:  4859charge 0 multiplicity 1
 C        -0.186529         0.175386         0.298223
 C         1.269775        -0.130257        -0.199648
 C         1.804085        -1.535944        -0.696887
 C         3.201868        -1.019162        -1.030968
 C         3.535130        -0.071549         0.263522
 C         4.082421         0.949209        -0.813933
 C         2.978583         0.334221        -1.792302
 O         1.638530         0.716355        -1.297685
 O         2.175497         0.176485         0.827611
 H        -0.597806        -0.553057         1.025782
 H        -0.086352         1.129896         0.804400
 H        -0.935809         0.472416        -0.457096
 H         1.936671        -2.431591         0.006419
 H         1.138527        -1.812775        -1.697870
 H         3.788189        -1.788117        -1.580595
 H         4.157490        -0.525542         1.059701
 H         3.902967         1.942246        -0.342837
 H         5.074147         0.734786        -1.232224
 H         2.979960         0.386766        -2.863708
