19
Iteration:  3262charge 0 multiplicity 1
 C        -0.013579         0.136637         0.316283
 C         1.279501        -0.152485        -0.245404
 C         1.772133        -1.476627        -0.704378
 C         3.125512        -0.956343        -0.999422
 C         3.494252        -0.179906         0.211759
 C         4.022448         0.991398        -0.769833
 C         2.960952         0.341334        -1.753051
 O         1.596823         0.746651        -1.342353
 O         2.224407         0.133841         0.812484
 H        -0.416901        -0.510187         1.099219
 H        -0.108339         1.188919         0.713310
 H        -0.823020         0.093403        -0.391268
 H         1.612637        -2.202264         0.063195
 H         1.097047        -1.759998        -1.463031
 H         3.917150        -1.691090        -1.454890
 H         4.172275        -0.542577         1.031828
 H         3.811051         2.026485        -0.418192
 H         5.097681         0.924037        -0.986321
 H         3.409704         0.199221        -2.855718
