19
Iteration:  3430
 C        -0.077279         0.117221         0.255205
 C         1.361366        -0.098999        -0.190960
 C         1.743351        -1.445708        -0.675311
 C         3.107146        -1.056234        -1.038712
 C         3.568701        -0.133278         0.216819
 C         4.041442         0.993146        -0.739319
 C         2.942712         0.372368        -1.707152
 O         1.578143         0.730415        -1.322014
 O         2.242965         0.111413         0.800574
 H        -0.552085        -0.786955         0.716552
 H        -0.267387         0.997115         0.911633
 H        -0.544692         0.113282        -0.783267
 H         1.513471        -2.133050         0.126974
 H         1.111610        -1.711103        -1.539129
 H         3.965628        -1.553586        -1.415682
 H         4.295670        -0.453060         0.969136
 H         3.821413         2.036186        -0.706073
 H         5.043901         0.801456        -1.042607
 H         2.832934         0.499022        -2.803185
