19
Iteration:  3118
 C        -0.095035         0.178083         0.297698
 C         1.309186        -0.080500        -0.291094
 C         1.721929        -1.553218        -0.712352
 C         3.142578        -1.057122        -1.074310
 C         3.597703        -0.176980         0.279191
 C         3.933192         1.002221        -0.716572
 C         2.994967         0.349080        -1.695702
 O         1.583581         0.811186        -1.378637
 O         2.307277         0.093941         0.831449
 H        -0.036251        -0.153989         1.340635
 H        -0.388374         1.189145         0.204478
 H        -0.843849        -0.452763        -0.227850
 H         1.617431        -2.112807         0.160885
 H         0.960142        -1.812835        -1.338331
 H         3.743971        -1.731327        -1.590455
 H         4.364551        -0.538634         0.983909
 H         3.661730         1.962883        -0.273166
 H         4.900940         1.056261        -1.186894
 H         3.121073         0.434732        -2.828445
