19
Iteration:  1873
 C        -0.049744         0.067155         0.281512
 C         1.269728        -0.071809        -0.217812
 C         1.748393        -1.493781        -0.700061
 C         3.110104        -1.069253        -0.995230
 C         3.594391        -0.168670         0.129023
 C         3.966771         0.962327        -0.790274
 C         2.890882         0.396242        -1.697279
 O         1.642734         0.893597        -1.282093
 O         2.276229         0.047414         0.802837
 H        -0.205492        -0.485905         1.133903
 H        -0.047117         1.053899         0.648715
 H        -0.903721         0.029438        -0.419293
 H         1.478554        -1.975545         0.266759
 H         1.150377        -1.841830        -1.610233
 H         3.812484        -1.804990        -1.379627
 H         4.237787        -0.642075         0.886243
 H         3.918399         2.023729        -0.486007
 H         5.049985         0.831005        -1.217993
 H         3.045719         0.552287        -2.738716
