19
Iteration:  1232charge 0 multiplicity 1
 C        -0.085256         0.081146         0.433368
 C         1.307416        -0.070305        -0.266738
 C         1.722782        -1.418738        -0.779617
 C         3.094547        -0.981685        -1.105562
 C         3.588316        -0.275778         0.209550
 C         3.987599         0.949657        -0.735464
 C         2.990112         0.368559        -1.777705
 O         1.549285         0.834071        -1.247195
 O         2.347218         0.100451         0.793349
 H        -0.089899        -0.608755         1.333178
 H        -0.105433         1.176149         0.717168
 H        -1.057669        -0.095113        -0.297171
 H         1.653169        -2.222875        -0.026922
 H         1.155953        -1.627722        -1.728502
 H         3.729509        -1.723820        -1.575183
 H         4.096648        -0.833409         1.012081
 H         3.664037         1.826491        -0.252721
 H         4.954637         1.037714        -1.201735
 H         2.998948         0.549194        -2.917912
