19
Iteration:   122charge 0 multiplicity 1
 C        -0.055090         0.162494         0.422898
 C         1.319730        -0.066235        -0.137115
 C         1.693698        -1.476532        -0.843059
 C         3.110410        -0.971553        -1.120352
 C         3.621897        -0.252880         0.155982
 C         3.948783         0.982085        -0.751465
 C         2.883543         0.439405        -1.789224
 O         1.602065         0.747561        -1.295929
 O         2.330381         0.029180         0.901459
 H        -0.303068        -0.730374         1.014070
 H        -0.022007         0.938866         1.142087
 H        -0.688974         0.337651        -0.366998
 H         1.427063        -2.382008        -0.303451
 H         1.171555        -1.586000        -1.775894
 H         3.874231        -1.554703        -1.685116
 H         4.415010        -0.548807         0.859823
 H         3.631575         1.969621        -0.234957
 H         4.928439         1.016889        -1.206835
 H         2.979154         0.567845        -2.844324
