19
Iteration:  4276charge 0 multiplicity 1
 C        -0.061929         0.166397         0.326998
 C         1.330841        -0.119327        -0.218433
 C         1.777135        -1.430096        -0.760461
 C         3.171904        -1.041162        -1.061813
 C         3.472115        -0.160681         0.271777
 C         3.988333         0.953049        -0.742245
 C         2.983309         0.382717        -1.770355
 O         1.611407         0.714284        -1.365005
 O         2.204520         0.139348         0.829775
 H        -0.190817        -0.487475         1.174447
 H        -0.226645         1.183146         0.698715
 H        -0.902846        -0.056106        -0.333775
 H         1.822805        -2.121900        -0.044626
 H         1.058156        -1.880739        -1.453242
 H         3.934024        -1.660116        -1.511995
 H         4.072364        -0.514147         1.098966
 H         3.912286         1.972078        -0.292936
 H         5.055063         0.824991        -0.965488
 H         3.074947         0.333848        -2.821895
