19
Iteration:   694charge 0 multiplicity 1
 C        -0.073670         0.097688         0.439484
 C         1.298827        -0.026683        -0.216824
 C         1.735590        -1.541857        -0.737468
 C         3.086062        -0.951383        -1.136114
 C         3.507795        -0.272278         0.127316
 C         4.038514         0.923043        -0.748494
 C         2.889231         0.440779        -1.758773
 O         1.625659         0.919209        -1.257081
 O         2.305077         0.047336         0.778395
 H        -0.252488        -0.914233         1.001232
 H         0.001685         0.822442         1.255618
 H        -0.903446         0.047773        -0.182314
 H         1.788336        -2.155338         0.170712
 H         1.172808        -2.121217        -1.512293
 H         3.892760        -1.579718        -1.550100
 H         4.278441        -0.702363         0.788230
 H         3.892808         1.913024        -0.591907
 H         5.084136         0.632070        -0.950425
 H         2.969141         0.831031        -2.868444
