19
Iteration:  3783
 C        -0.121572         0.162002         0.271394
 C         1.300353        -0.136361        -0.253729
 C         1.753538        -1.473353        -0.709698
 C         3.208843        -1.106467        -0.975459
 C         3.527132        -0.168007         0.162809
 C         3.940619         0.961063        -0.730087
 C         2.970366         0.421995        -1.785464
 O         1.621778         0.795841        -1.374925
 O         2.313621         0.113907         0.882795
 H        -0.363731        -0.675828         0.997704
 H        -0.156221         1.093620         0.924929
 H        -0.974509        -0.013639        -0.543751
 H         1.570163        -2.192091         0.094640
 H         0.908012        -1.767266        -1.377771
 H         4.048471        -1.615782        -1.456168
 H         4.107561        -0.608190         0.999635
 H         3.565401         1.865668        -0.261443
 H         4.991994         1.172281        -0.870768
 H         2.997981         0.516789        -2.860084
