19
Iteration:  1236
 C        -0.052716         0.084492         0.420968
 C         1.352090        -0.110802        -0.238486
 C         1.716459        -1.443365        -0.799806
 C         3.081017        -0.976288        -1.102866
 C         3.578583        -0.288489         0.204597
 C         3.982528         0.952187        -0.722532
 C         2.949132         0.380333        -1.798794
 O         1.575336         0.817062        -1.255867
 O         2.321683         0.150340         0.810143
 H        -0.168601        -0.620056         1.317365
 H        -0.170797         1.179460         0.698812
 H        -0.915834         0.009440        -0.165736
 H         1.592856        -2.250481        -0.101597
 H         1.199001        -1.543056        -1.737372
 H         3.684712        -1.713165        -1.619290
 H         4.164296        -0.849210         0.965503
 H         3.537467         1.835686        -0.160789
 H         4.955598         0.966838        -1.240142
 H         3.094227         0.593352        -2.847610
