19
Iteration:  1982charge 0 multiplicity 1
 C        -0.110733         0.118525         0.276083
 C         1.329025        -0.089406        -0.196484
 C         1.661237        -1.487799        -0.763453
 C         3.100137        -1.024112        -1.076340
 C         3.621778        -0.156682         0.200302
 C         4.021613         0.987389        -0.713431
 C         2.924110         0.354647        -1.634137
 O         1.534605         0.786470        -1.273598
 O         2.391658         0.142582         0.779993
 H        -0.283244        -0.672014         0.913493
 H        -0.255939         1.094735         0.592455
 H        -0.664625        -0.126433        -0.674507
 H         1.538006        -2.359146        -0.020410
 H         1.001734        -1.664063        -1.724121
 H         3.760804        -1.738439        -1.616487
 H         4.274323        -0.486142         1.026926
 H         3.976776         1.986573        -0.262173
 H         4.966031         0.545137        -1.219900
 H         2.908938         0.392172        -2.688741
