19
Iteration:  2150
 C        -0.080597         0.151796         0.324738
 C         1.351810        -0.108250        -0.184358
 C         1.601887        -1.446005        -0.808880
 C         3.117079        -1.019803        -1.105052
 C         3.593479        -0.124414         0.261096
 C         3.973824         0.995242        -0.729734
 C         2.978487         0.356779        -1.723260
 O         1.616274         0.723578        -1.349893
 O         2.282255         0.067618         0.876673
 H        -0.174058        -0.520647         1.237298
 H        -0.134728         1.273164         0.533882
 H        -0.710534        -0.063336        -0.495312
 H         1.818713        -2.210244        -0.020758
 H         0.901545        -1.732396        -1.664403
 H         3.741873        -1.789486        -1.535937
 H         4.419824        -0.354527         0.960250
 H         3.778526         2.116569        -0.447469
 H         5.010571         0.660660        -1.029903
 H         3.144744         0.556093        -2.843691
