19
Iteration:  3820charge 0 multiplicity 1
 C        -0.090462         0.074975         0.272198
 C         1.332271        -0.075158        -0.217326
 C         1.730553        -1.493928        -0.775580
 C         3.198289        -1.032221        -0.997950
 C         3.500689        -0.173133         0.246059
 C         4.025882         0.938882        -0.722576
 C         2.927672         0.389892        -1.733334
 O         1.555513         0.720792        -1.329771
 O         2.262169         0.201867         0.815508
 H        -0.296953        -0.743138         0.960671
 H         0.053663         0.976330         0.854657
 H        -0.824182         0.343424        -0.369546
 H         1.681746        -2.327939         0.036854
 H         1.186341        -1.689728        -1.722459
 H         3.995755        -1.566789        -1.537264
 H         4.299797        -0.446441         0.951996
 H         3.868816         1.965516        -0.385328
 H         5.023443         0.740257        -1.095203
 H         3.031718         0.695231        -2.789099
