19
Iteration:  2549charge 0 multiplicity 1
 C        -0.108410         0.209284         0.322456
 C         1.265715        -0.084071        -0.234855
 C         1.787893        -1.526568        -0.714795
 C         3.150809        -1.067522        -1.025610
 C         3.550422        -0.205861         0.135316
 C         3.938270         0.955522        -0.734680
 C         2.960983         0.426008        -1.809021
 O         1.622480         0.744947        -1.354545
 O         2.279969         0.141404         0.882743
 H        -0.214283        -0.468924         1.181375
 H        -0.053666         1.235668         0.662666
 H        -0.893808        -0.031126        -0.420529
 H         1.783943        -2.126603         0.352347
 H         1.169873        -2.110666        -1.473459
 H         3.862979        -1.782619        -1.330327
 H         4.202826        -0.672878         0.905203
 H         3.724845         1.950573        -0.241381
 H         5.027199         0.923256        -0.944690
 H         3.008600         0.683079        -2.878917
