19
Iteration:  4705charge 0 multiplicity 1
 C        -0.079302         0.140022         0.306311
 C         1.282661        -0.096054        -0.261042
 C         1.773613        -1.467579        -0.689674
 C         3.145191        -1.022604        -0.995201
 C         3.557488        -0.170455         0.184708
 C         4.003300         0.961618        -0.661533
 C         2.990977         0.423372        -1.742974
 O         1.553996         0.658132        -1.404662
 O         2.241503         0.176883         0.808758
 H        -0.102173        -0.282541         1.288089
 H        -0.174861         1.226669         0.357812
 H        -0.775723        -0.388613        -0.266554
 H         1.490543        -2.169630         0.076027
 H         1.162497        -1.810018        -1.669413
 H         3.893816        -1.719035        -1.346561
 H         4.161891        -0.412778         1.052392
 H         4.039164         1.937070        -0.209416
 H         4.985059         0.802135        -1.090162
 H         3.107762         0.498224        -2.814475
