19
Iteration:   912
 C        -0.048811         0.121037         0.434671
 C         1.259921        -0.085943        -0.251545
 C         1.743013        -1.450500        -0.757169
 C         3.123978        -0.981579        -1.153629
 C         3.563884        -0.280367         0.140804
 C         3.903452         0.934501        -0.720940
 C         2.912142         0.460739        -1.812645
 O         1.591654         0.835536        -1.343428
 O         2.353976         0.036032         0.945775
 H        -0.120909        -0.868605         0.965576
 H         0.180876         0.980633         1.132200
 H        -0.899051         0.283192        -0.160220
 H         1.723703        -1.973959         0.215226
 H         1.176427        -1.896117        -1.556474
 H         3.719018        -1.661861        -1.770659
 H         4.325352        -0.682708         0.804324
 H         3.808005         1.941115        -0.355141
 H         5.046504         0.823244        -1.096425
 H         3.022984         0.757277        -2.836923
