19
Iteration:  1650
 C        -0.080968         0.250329         0.357519
 C         1.357115        -0.151251        -0.174304
 C         1.774241        -1.466141        -0.777329
 C         3.158876        -1.036612        -1.127661
 C         3.556158        -0.209503         0.155607
 C         3.886508         1.010146        -0.740346
 C         2.909184         0.353186        -1.737368
 O         1.658095         0.808712        -1.263396
 O         2.258307         0.024615         0.803613
 H        -0.377514        -0.476041         1.158646
 H        -0.025236         1.210338         0.832007
 H        -0.872590         0.233620        -0.317133
 H         1.838914        -2.299807        -0.052407
 H         1.054266        -1.932366        -1.471319
 H         3.819835        -1.774561        -1.675407
 H         4.226673        -0.474709         0.963720
 H         3.637392         2.021121        -0.261815
 H         5.012092         1.026977        -0.924461
 H         2.899297         0.390173        -2.836560
