19
Iteration:  2407
 C        -0.056254         0.165855         0.298471
 C         1.313777        -0.114734        -0.221485
 C         1.687343        -1.482011        -0.679304
 C         3.174158        -1.051972        -0.991336
 C         3.609198        -0.119059         0.235605
 C         3.958633         1.009713        -0.799952
 C         2.920208         0.344791        -1.732641
 O         1.606356         0.810717        -1.315398
 O         2.254282         0.022294         0.792394
 H        -0.520797        -0.678621         0.824085
 H        -0.084544         1.172306         0.731296
 H        -0.872178         0.247649        -0.511130
 H         1.699167        -2.205688         0.104287
 H         1.204174        -1.811251        -1.600348
 H         3.831793        -1.791151        -1.466033
 H         4.323980        -0.401885         1.046277
 H         3.982335         2.075228        -0.493507
 H         4.980081         0.881798        -1.244006
 H         3.006750         0.412444        -2.798128
