19
Iteration:  1156
 C        -0.060042         0.190656         0.389269
 C         1.345885        -0.176891        -0.205886
 C         1.661542        -1.476131        -0.728602
 C         3.106890        -0.962042        -1.073210
 C         3.614417        -0.256771         0.120276
 C         3.979791         0.997368        -0.747991
 C         2.929213         0.486028        -1.679568
 O         1.542376         0.800099        -1.340285
 O         2.340122        -0.016476         0.808238
 H        -0.136422        -0.398246         1.301689
 H        -0.077748         1.231981         0.712679
 H        -0.861960        -0.143143        -0.358318
 H         1.748127        -2.312314        -0.043318
 H         1.007554        -1.702188        -1.589656
 H         3.752294        -1.721645        -1.514988
 H         4.256036        -0.662542         0.911930
 H         3.732644         1.960588        -0.431328
 H         4.978762         1.076018        -1.073960
 H         3.154413         0.764809        -2.760511
