19
Iteration:  4300
 C        -0.109276         0.184641         0.230448
 C         1.307199        -0.153186        -0.280969
 C         1.663145        -1.540601        -0.674497
 C         3.084358        -1.098030        -1.020517
 C         3.612815        -0.131979         0.217161
 C         3.954227         1.019659        -0.712818
 C         2.964164         0.401779        -1.701142
 O         1.625713         0.805303        -1.374250
 O         2.357172         0.093711         0.852058
 H        -0.265499        -0.335700         1.208479
 H        -0.457503         1.216825         0.383622
 H        -0.903522        -0.342854        -0.399272
 H         1.434320        -2.182788         0.024842
 H         1.079540        -1.899487        -1.495742
 H         3.946537        -1.694730        -1.387828
 H         4.362320        -0.510786         0.922761
 H         3.778673         1.997681        -0.210209
 H         5.023290         1.045876        -1.068802
 H         3.166364         0.396804        -2.781998
