19
Iteration:  4305
 C        -0.135844         0.174917         0.201158
 C         1.294913        -0.099011        -0.245650
 C         1.683452        -1.513721        -0.735522
 C         3.146352        -1.117742        -1.003783
 C         3.596383        -0.147112         0.226927
 C         3.966234         1.012640        -0.706256
 C         2.932830         0.391937        -1.721771
 O         1.607917         0.795420        -1.344035
 O         2.378984         0.109090         0.847095
 H        -0.258868        -0.243729         1.219300
 H        -0.332854         1.253084         0.345529
 H        -0.832341        -0.365997        -0.406122
 H         1.548439        -2.387520         0.208463
 H         0.932936        -1.905227        -1.492755
 H         3.864642        -1.739157        -1.578010
 H         4.329858        -0.448242         1.010083
 H         3.653170         1.895650        -0.144463
 H         4.994125         1.030766        -1.038282
 H         3.110056         0.280105        -2.821523
