19
Iteration:  3247
 C        -0.153334         0.218417         0.341490
 C         1.279945        -0.093025        -0.214764
 C         1.755858        -1.533403        -0.770953
 C         3.215878        -1.097038        -1.018319
 C         3.608116        -0.101941         0.273219
 C         3.951464         0.955924        -0.718633
 C         2.943530         0.387027        -1.746649
 O         1.586477         0.702882        -1.402542
 O         2.247952         0.144352         0.838793
 H        -0.334578        -0.570721         1.061700
 H        -0.005982         1.098717         0.887187
 H        -0.859032         0.312133        -0.492315
 H         1.804982        -2.343598         0.008747
 H         1.325505        -1.906804        -1.769318
 H         3.947955        -1.682314        -1.493044
 H         4.316999        -0.437337         1.024009
 H         3.942764         2.024252        -0.426442
 H         4.922955         0.674723        -1.235732
 H         2.972021         0.704081        -2.754612
