19
Iteration:   672
 C        -0.023245         0.077647         0.368908
 C         1.308787        -0.120155        -0.122880
 C         1.610289        -1.422178        -0.841842
 C         3.126450        -1.047555        -1.120817
 C         3.597949        -0.254017         0.183333
 C         3.989201         0.985919        -0.790699
 C         2.930672         0.417919        -1.708684
 O         1.555378         0.847381        -1.256987
 O         2.368785         0.090066         0.851920
 H        -0.391235        -0.785076         1.046751
 H         0.127769         0.934924         1.023240
 H        -0.693427         0.080967        -0.428016
 H         1.368325        -2.341946        -0.284977
 H         1.019616        -1.478414        -1.798534
 H         3.772403        -1.822323        -1.559495
 H         4.385721        -0.402367         0.935893
 H         3.870681         1.905973        -0.379470
 H         4.974323         0.943636        -1.277750
 H         2.906125         0.578103        -2.864349
