19
Iteration:  1552
 C        -0.109116         0.190036         0.423271
 C         1.348737        -0.158650        -0.133502
 C         1.706827        -1.425390        -0.866969
 C         3.109221        -1.020778        -1.169968
 C         3.533277        -0.231583         0.208241
 C         4.004377         1.001644        -0.691330
 C         2.964832         0.358927        -1.758175
 O         1.565690         0.745879        -1.362558
 O         2.350952         0.122645         0.903992
 H        -0.397691        -0.421125         1.381439
 H        -0.233780         1.253542         0.716075
 H        -0.877675        -0.085727        -0.360718
 H         1.707572        -2.365984        -0.319785
 H         1.121153        -1.627538        -1.746197
 H         3.934223        -1.727337        -1.452972
 H         4.198443        -0.735293         0.900570
 H         3.576450         1.994765        -0.403090
 H         4.995522         0.911050        -1.192393
 H         3.220380         0.598063        -2.787725
