19
Iteration:  1338charge 0 multiplicity 1
 C        -0.108266         0.116818         0.422965
 C         1.292185        -0.066856        -0.194443
 C         1.750795        -1.479902        -0.813914
 C         3.151324        -1.036988        -1.056727
 C         3.642717        -0.277174         0.223904
 C         4.006465         0.922643        -0.739974
 C         2.885325         0.445159        -1.697033
 O         1.493848         0.867023        -1.374042
 O         2.365419         0.118957         0.816830
 H        -0.339777        -0.583284         1.130393
 H        -0.440252         0.989710         0.851155
 H        -0.800572        -0.133072        -0.346906
 H         1.615908        -2.367271        -0.178576
 H         1.335217        -1.753152        -1.811804
 H         3.904817        -1.641541        -1.617441
 H         4.211577        -0.765099         1.005532
 H         3.888471         1.996421        -0.429536
 H         5.097387         0.676532        -1.137826
 H         2.939107         0.589223        -2.751269
