19
Iteration:  3319
 C        -0.081389         0.181178         0.241999
 C         1.306845        -0.127861        -0.213655
 C         1.719868        -1.589500        -0.758668
 C         3.118031        -1.023927        -1.013403
 C         3.566154        -0.163482         0.227623
 C         4.060297         0.996997        -0.770276
 C         2.896977         0.452263        -1.733391
 O         1.586569         0.717190        -1.287330
 O         2.251993         0.158518         0.847328
 H        -0.118609        -0.191120         1.289274
 H        -0.424040         1.224978         0.162046
 H        -0.677695        -0.490147        -0.455107
 H         1.682364        -2.253447         0.078750
 H         1.036564        -1.781054        -1.526892
 H         3.943473        -1.720290        -1.250731
 H         4.345327        -0.506394         0.912802
 H         4.017802         2.022651        -0.457414
 H         5.030128         0.714772        -1.153958
 H         3.307518         0.523849        -2.784784
