19
Iteration:   898charge 0 multiplicity 1
 C         0.025237         0.160871         0.451296
 C         1.387715        -0.065099        -0.144073
 C         1.674208        -1.451608        -0.752180
 C         3.095872        -1.022288        -1.221629
 C         3.552681        -0.208974         0.159161
 C         3.978088         0.983072        -0.687563
 C         2.918721         0.484110        -1.775560
 O         1.542269         0.703524        -1.331204
 O         2.315724         0.036485         0.810195
 H        -0.341505        -0.798467         1.044722
 H        -0.138997         0.987073         1.194159
 H        -0.715819         0.364412        -0.391175
 H         1.742594        -2.371243        -0.182367
 H         0.938701        -1.589003        -1.603276
 H         3.910633        -1.737595        -1.434891
 H         4.239138        -0.751851         0.875411
 H         3.720828         1.972455        -0.176933
 H         5.005252         0.960870        -1.011966
 H         2.928553         0.821105        -2.800399
