19
Iteration:  2775
 C        -0.154104         0.108105         0.316086
 C         1.297181        -0.076017        -0.228802
 C         1.691079        -1.596201        -0.644223
 C         3.071631        -1.065589        -1.009300
 C         3.604669        -0.165687         0.204537
 C         4.037897         1.022173        -0.769915
 C         2.961100         0.368167        -1.740565
 O         1.622727         0.861423        -1.377653
 O         2.312458         0.097105         0.820832
 H        -0.307370        -0.817472         0.897520
 H        -0.198156         1.048655         0.824813
 H        -0.786909         0.174956        -0.588748
 H         1.557404        -2.157647         0.247729
 H         1.038910        -1.874538        -1.502498
 H         3.712794        -1.600905        -1.576543
 H         4.380349        -0.448012         0.946191
 H         3.945636         2.007319        -0.283038
 H         5.002603         0.911660        -1.216292
 H         3.185304         0.542811        -2.839531
