19
Iteration:  4479charge 0 multiplicity 1
 C        -0.132240         0.141860         0.337531
 C         1.362395        -0.101503        -0.270283
 C         1.720196        -1.470765        -0.752426
 C         3.192848        -1.078632        -1.004816
 C         3.606791        -0.126116         0.314692
 C         3.933133         0.971147        -0.663897
 C         2.940307         0.261108        -1.726989
 O         1.600547         0.780935        -1.426012
 O         2.290231         0.180752         0.796192
 H        -0.267929        -0.646343         1.133819
 H        -0.378010         1.238440         0.685530
 H        -0.830738        -0.101309        -0.505701
 H         1.506870        -2.131270         0.069654
 H         1.232566        -1.481583        -1.620246
 H         3.817054        -1.686178        -1.587646
 H         4.253588        -0.668954         1.035762
 H         3.499150         1.995242        -0.434161
 H         4.958524         0.872893        -1.125153
 H         3.086229         0.320124        -2.846537
