19
Iteration:  1416
 C        -0.026361         0.204370         0.332572
 C         1.358618        -0.154816        -0.185539
 C         1.708530        -1.590337        -0.805372
 C         3.041567        -1.012918        -1.075445
 C         3.584581        -0.245622         0.158092
 C         3.979987         0.981452        -0.733629
 C         2.898103         0.493875        -1.717936
 O         1.586877         0.784309        -1.245209
 O         2.332400         0.085129         0.840977
 H        -0.393294        -0.344358         1.130185
 H        -0.115449         1.240794         0.460889
 H        -0.656179        -0.113886        -0.520070
 H         1.737465        -2.484762        -0.114046
 H         1.045717        -1.787548        -1.714534
 H         3.876629        -1.502091        -1.557540
 H         4.199014        -0.656990         0.972877
 H         3.753813         1.981066        -0.303679
 H         5.083107         1.209975        -1.196491
 H         2.828390         0.692927        -2.822193
