19
Iteration:  4617
 C        -0.081596         0.141746         0.273261
 C         1.356315        -0.130892        -0.225932
 C         1.753343        -1.510495        -0.736453
 C         3.163195        -1.063235        -0.986724
 C         3.523605        -0.227927         0.290063
 C         4.009745         1.036507        -0.722011
 C         2.971286         0.441279        -1.712489
 O         1.554711         0.643761        -1.333505
 O         2.255707         0.231871         0.742144
 H        -0.582448        -0.589413         0.874095
 H        -0.012089         1.063474         0.848365
 H        -0.790329         0.323626        -0.459655
 H         1.529296        -2.241638         0.039678
 H         1.115438        -1.729751        -1.734723
 H         3.887872        -1.704826        -1.415732
 H         4.228222        -0.485086         1.070295
 H         3.824789         2.050561        -0.459349
 H         4.989967         0.858247        -1.138021
 H         3.098704         0.460785        -2.785521
