19
Iteration:  1647
 C        -0.078048         0.242291         0.357446
 C         1.320644        -0.147068        -0.182923
 C         1.782741        -1.481007        -0.772977
 C         3.157403        -1.031070        -1.120001
 C         3.594050        -0.188626         0.176321
 C         3.883773         0.983734        -0.737991
 C         2.904024         0.364743        -1.717269
 O         1.635999         0.822135        -1.275951
 O         2.285700         0.022743         0.813218
 H        -0.278212        -0.485140         1.121268
 H         0.049401         1.240234         0.803021
 H        -0.825608         0.204065        -0.611179
 H         1.715627        -2.302074         0.040258
 H         1.041313        -1.854319        -1.526075
 H         3.751491        -1.703532        -1.736435
 H         4.264789        -0.591044         0.998817
 H         3.539211         1.925193        -0.284209
 H         4.974716         1.002980        -1.027077
 H         2.854921         0.390332        -2.870250
