19
Iteration:  3515
 C        -0.144260         0.206487         0.288258
 C         1.283848        -0.084020        -0.179408
 C         1.810217        -1.500202        -0.772655
 C         3.160080        -1.040175        -1.100556
 C         3.617422        -0.193460         0.197578
 C         3.955002         0.983233        -0.671415
 C         2.958840         0.345328        -1.710162
 O         1.597759         0.703098        -1.289038
 O         2.254409         0.146193         0.808193
 H        -0.285273        -0.257964         1.261260
 H        -0.469350         1.236762         0.160936
 H        -0.956057        -0.181790        -0.422930
 H         1.729711        -2.334873        -0.079781
 H         1.247094        -1.616921        -1.664071
 H         3.885444        -1.775372        -1.385655
 H         4.306894        -0.438763         1.030071
 H         3.743482         2.015790        -0.348190
 H         5.079573         1.048464        -1.038381
 H         2.997514         0.368799        -2.901917
