19
Iteration:  2737charge 0 multiplicity 1
 C        -0.085384         0.158716         0.278956
 C         1.383793        -0.115880        -0.139107
 C         1.743736        -1.593364        -0.756216
 C         3.100761        -0.995625        -1.100138
 C         3.612451        -0.187945         0.227128
 C         3.986493         0.939769        -0.702233
 C         2.886479         0.383927        -1.725161
 O         1.569360         0.788261        -1.357685
 O         2.291359         0.201638         0.852463
 H        -0.533757        -0.151393         1.208609
 H        -0.328944         1.238842         0.407319
 H        -0.791780        -0.254810        -0.423760
 H         1.728219        -2.623582        -0.203255
 H         1.071135        -1.734787        -1.604726
 H         3.977378        -1.577839        -1.608537
 H         4.178806        -0.563450         1.068380
 H         3.933322         1.990170        -0.402879
 H         5.055792         0.741722        -1.040517
 H         3.005883         0.287730        -2.778766
