19
Iteration:  3523charge 0 multiplicity 1
 C        -0.164387         0.163658         0.288143
 C         1.323316        -0.107105        -0.165431
 C         1.754549        -1.515968        -0.779033
 C         3.152573        -1.019431        -0.994320
 C         3.622416        -0.175560         0.144104
 C         3.953018         1.000668        -0.723469
 C         2.931336         0.372075        -1.690887
 O         1.664460         0.728399        -1.315484
 O         2.263541         0.147204         0.804872
 H        -0.448636        -0.166655         1.241653
 H        -0.314902         1.209821         0.241778
 H        -0.710048        -0.371316        -0.468582
 H         1.493658        -2.338920        -0.087311
 H         1.139796        -1.686634        -1.656733
 H         3.771242        -1.796637        -1.307072
 H         4.243406        -0.724831         0.843728
 H         3.537113         1.920004        -0.311461
 H         5.028195         1.096181        -1.015582
 H         3.149674         0.491809        -2.723868
