19
Iteration:   764charge 0 multiplicity 1
 C        -0.080876         0.178863         0.431656
 C         1.324039        -0.151658        -0.129753
 C         1.684547        -1.440948        -0.753377
 C         3.107818        -0.980208        -1.226428
 C         3.556457        -0.209410         0.125346
 C         3.908327         0.996894        -0.758772
 C         2.949046         0.456659        -1.792684
 O         1.696085         0.807674        -1.252755
 O         2.306082        -0.033395         0.840138
 H        -0.125650        -0.388122         1.307573
 H        -0.061618         1.207241         0.788857
 H        -0.938032        -0.247165        -0.174317
 H         1.809829        -2.288734        -0.051771
 H         0.995854        -1.790860        -1.523045
 H         3.842060        -1.598233        -1.746406
 H         4.175681        -0.620813         0.909321
 H         3.607900         1.959977        -0.328103
 H         4.924307         0.932252        -0.985541
 H         2.953103         0.504413        -2.813467
