19
Iteration:  2440charge 0 multiplicity 1
 C        -0.085491         0.193485         0.352037
 C         1.297271        -0.150983        -0.137050
 C         1.703241        -1.542112        -0.822145
 C         3.155459        -1.023691        -1.140264
 C         3.592327        -0.186208         0.291342
 C         3.954526         1.003999        -0.727724
 C         2.932863         0.304787        -1.797270
 O         1.624490         0.721020        -1.364880
 O         2.256902         0.220623         0.903068
 H        -0.417177        -0.207401         1.319626
 H        -0.063473         1.227176         0.741432
 H        -0.615048         0.159897        -0.661675
 H         1.946323        -2.427682        -0.301250
 H         1.105199        -1.697408        -1.721199
 H         3.804592        -1.836648        -1.446626
 H         4.416593        -0.429844         1.002578
 H         3.579085         1.947274        -0.257288
 H         4.971453         0.895260        -1.145768
 H         3.171420         0.372652        -2.830793
