19
Iteration:  4902charge 0 multiplicity 1
 C        -0.128216         0.172032         0.201873
 C         1.328910        -0.096581        -0.177889
 C         1.760475        -1.415807        -0.689437
 C         3.147932        -1.078107        -1.038883
 C         3.617666        -0.272521         0.249264
 C         3.895595         0.958856        -0.715752
 C         2.909312         0.294897        -1.732765
 O         1.627013         0.746330        -1.352403
 O         2.322005         0.209061         0.818567
 H        -0.246653        -0.366010         1.162472
 H        -0.148362         1.271034         0.201332
 H        -0.894578        -0.252561        -0.496119
 H         1.632400        -2.155761         0.130131
 H         1.178131        -1.596095        -1.680063
 H         3.947764        -1.742300        -1.458629
 H         4.344481        -0.400800         1.102603
 H         3.298174         1.831090        -0.348921
 H         4.929402         1.255769        -0.938244
 H         3.005434         0.375698        -2.755567
