19
Iteration:  3211
 C        -0.060252         0.144604         0.258189
 C         1.297608        -0.144499        -0.228127
 C         1.741950        -1.461630        -0.689599
 C         3.114986        -1.005827        -1.047717
 C         3.599777        -0.123900         0.216319
 C         3.928743         1.008209        -0.691487
 C         2.932139         0.282109        -1.771173
 O         1.638680         0.729214        -1.344405
 O         2.280099         0.133841         0.848377
 H        -0.625730        -0.637802         0.821918
 H        -0.054076         1.146756         0.860090
 H        -0.801864         0.456017        -0.553648
 H         1.962998        -2.163683         0.208062
 H         0.948250        -1.971268        -1.400094
 H         3.724028        -1.698165        -1.794322
 H         4.177375        -0.618872         1.076865
 H         3.699578         1.989225        -0.289097
 H         4.948452         1.080410        -1.156408
 H         3.269836         0.479009        -2.858620
