19
Iteration:  2470
 C        -0.043395         0.158739         0.318729
 C         1.238008        -0.080294        -0.371536
 C         1.688095        -1.510822        -0.660429
 C         3.100856        -1.015180        -0.986835
 C         3.597374        -0.226337         0.182384
 C         3.977366         0.997233        -0.688608
 C         2.927301         0.430780        -1.730819
 O         1.592174         0.795164        -1.365365
 O         2.328953         0.102417         0.812056
 H         0.117264        -0.483408         1.162153
 H        -0.159713         1.204316         0.383747
 H        -0.813910        -0.300276        -0.327493
 H         1.578360        -2.246153         0.252142
 H         1.239715        -2.273387        -1.326688
 H         3.837003        -1.837197        -1.197807
 H         4.281455        -0.667550         0.983553
 H         4.033247         1.979835        -0.201843
 H         4.972161         0.869373        -1.235184
 H         2.952313         0.612016        -2.864997
