19
Iteration:  4764
 C        -0.084390         0.173527         0.219633
 C         1.299873        -0.151493        -0.191414
 C         1.730271        -1.578222        -0.798043
 C         3.110468        -1.048923        -0.997659
 C         3.574994        -0.065545         0.290247
 C         4.014574         1.036507        -0.825894
 C         2.937633         0.362188        -1.688243
 O         1.583399         0.712989        -1.358092
 O         2.305126         0.129394         0.927625
 H        -0.466002        -0.227714         1.184321
 H        -0.311897         1.238080         0.182465
 H        -0.867684        -0.171802        -0.544912
 H         1.538482        -2.289812         0.014183
 H         1.089016        -1.661247        -1.561470
 H         4.014005        -1.545714        -1.397994
 H         4.255910        -0.380049         1.109500
 H         4.093061         2.067351        -0.418317
 H         4.877698         0.635007        -1.383390
 H         3.167220         0.380422        -2.860142
