19
Iteration:  4354charge 0 multiplicity 1
 C        -0.093760         0.181659         0.328660
 C         1.265958        -0.105011        -0.303903
 C         1.731958        -1.475714        -0.727533
 C         3.099025        -1.038958        -1.051096
 C         3.596636        -0.097323         0.291487
 C         4.059809         0.996460        -0.732669
 C         3.002277         0.339643        -1.704528
 O         1.563297         0.752090        -1.327180
 O         2.227462         0.078805         0.776157
 H        -0.231053        -0.339201         1.310285
 H        -0.214356         1.250056         0.449414
 H        -0.806545        -0.327451        -0.387751
 H         1.672206        -2.092716         0.123457
 H         1.333361        -2.046159        -1.624972
 H         3.833986        -1.813150        -1.400905
 H         4.263897        -0.497453         1.077065
 H         3.903136         2.088049        -0.588838
 H         5.083807         0.632018        -1.020344
 H         3.168072         0.506359        -2.793338
