19
Iteration:  1720charge 0 multiplicity 1
 C        -0.134206         0.048869         0.293637
 C         1.274866        -0.108567        -0.170655
 C         1.673195        -1.522756        -0.724826
 C         2.992261        -0.986223        -1.162422
 C         3.632822        -0.209331         0.181023
 C         4.063764         0.944071        -0.716731
 C         2.952297         0.426544        -1.745128
 O         1.628044         0.808820        -1.295902
 O         2.350932         0.190484         0.870124
 H        -0.132808        -0.523038         1.197786
 H        -0.079011         1.138514         0.484267
 H        -0.880343        -0.322921        -0.499425
 H         1.732114        -2.335329        -0.012882
 H         0.942344        -2.090649        -1.315212
 H         3.717443        -1.596373        -1.622622
 H         4.281395        -0.645974         0.967743
 H         3.894959         1.973053        -0.386934
 H         5.076962         0.994823        -1.116140
 H         2.931275         0.575383        -2.806540
