19
Iteration:  2360charge 0 multiplicity 1
 C        -0.053517         0.075141         0.309203
 C         1.304780        -0.144525        -0.158674
 C         1.654674        -1.492460        -0.804655
 C         3.113869        -1.035897        -1.015733
 C         3.631828        -0.217895         0.256081
 C         4.054727         0.942141        -0.714375
 C         2.855119         0.408038        -1.636704
 O         1.544074         0.750601        -1.374970
 O         2.338131         0.255750         0.763031
 H        -0.415598        -0.583769         0.996670
 H        -0.098037         1.075560         0.525304
 H        -0.691102        -0.028644        -0.485310
 H         1.489145        -2.229800        -0.013447
 H         1.196243        -1.709108        -1.739674
 H         3.758675        -1.756844        -1.558901
 H         4.405911        -0.395582         0.970693
 H         3.880808         1.955518        -0.351935
 H         5.102452         0.915614        -1.133089
 H         3.123095         0.504558        -2.704703
