19
Iteration:  3541charge 0 multiplicity 1
 C        -0.033647         0.078795         0.205542
 C         1.305639        -0.091036        -0.236209
 C         1.668271        -1.512712        -0.706517
 C         3.096331        -1.058132        -1.063253
 C         3.556787        -0.180696         0.293411
 C         3.954699         1.020726        -0.722617
 C         2.985543         0.392340        -1.754386
 O         1.596276         0.804319        -1.352063
 O         2.335144         0.113796         0.894264
 H        -0.078486        -0.454179         1.237209
 H        -0.327848         1.205121         0.191802
 H        -0.838367        -0.258604        -0.452651
 H         1.506079        -2.287043         0.088426
 H         0.952809        -1.765877        -1.611190
 H         3.938896        -1.819568        -1.469671
 H         4.293547        -0.359932         1.105733
 H         3.808770         2.102672        -0.503578
 H         4.952927         0.999137        -1.042246
 H         3.093993         0.419121        -2.873254
