19
Iteration:  1095
 C        -0.074453         0.142721         0.303824
 C         1.294702        -0.073980        -0.174837
 C         1.652704        -1.473652        -0.799317
 C         3.091008        -1.032418        -1.110674
 C         3.670481        -0.133535         0.189489
 C         4.035877         0.986609        -0.731217
 C         2.854862         0.440156        -1.690390
 O         1.526260         0.746767        -1.286090
 O         2.415726         0.045829         0.832361
 H        -0.108210        -0.865256         0.863313
 H        -0.261778         0.941535         1.066662
 H        -0.840140         0.137162        -0.338780
 H         1.544049        -2.288720        -0.039867
 H         0.932145        -1.619758        -1.606718
 H         3.663138        -1.720343        -1.704320
 H         4.408254        -0.573202         0.931258
 H         3.976592         2.062803        -0.298690
 H         5.032582         0.669931        -1.169752
 H         2.888584         0.567036        -2.750452
