19
Iteration:  4847
 C        -0.118367         0.217906         0.323258
 C         1.279364        -0.144856        -0.288877
 C         1.818183        -1.596418        -0.784928
 C         3.152123        -1.075635        -1.041278
 C         3.600498        -0.129026         0.265665
 C         3.992667         0.923889        -0.745295
 C         2.945787         0.309325        -1.710116
 O         1.561917         0.752319        -1.330630
 O         2.215584         0.294207         0.857050
 H        -0.382750        -0.742368         0.795070
 H        -0.072824         1.021419         1.089304
 H        -0.794444         0.268403        -0.531862
 H         1.589103        -2.302146         0.044892
 H         1.329699        -2.007789        -1.815511
 H         4.037995        -1.673000        -1.402826
 H         4.299710        -0.346501         1.099622
 H         4.001961         2.037279        -0.598310
 H         5.026433         0.724313        -1.071600
 H         3.082537         0.480028        -2.717013
