19
Iteration:  1422
 C        -0.093149         0.186701         0.365880
 C         1.357806        -0.192413        -0.163551
 C         1.681937        -1.581165        -0.780137
 C         3.061955        -0.963324        -1.156736
 C         3.579673        -0.197780         0.155647
 C         4.014296         0.940037        -0.725353
 C         2.911046         0.479273        -1.752140
 O         1.610115         0.789976        -1.272792
 O         2.309597         0.102654         0.855507
 H        -0.394629        -0.514283         1.240653
 H        -0.092541         1.320666         0.495786
 H        -0.774222        -0.008565        -0.483082
 H         2.017511        -2.381414        -0.134521
 H         1.042072        -1.800503        -1.589133
 H         3.909474        -1.624705        -1.489099
 H         4.287223        -0.668939         0.844835
 H         3.756714         1.878222        -0.230160
 H         4.995779         1.032259        -0.960489
 H         2.979828         0.689940        -2.805048
