19
Iteration:  4128
 C        -0.077042         0.121721         0.267181
 C         1.315081        -0.048637        -0.234984
 C         1.661881        -1.618523        -0.755310
 C         3.113799        -1.120878        -0.992746
 C         3.622418        -0.194365         0.220038
 C         3.961525         1.057267        -0.726362
 C         2.967000         0.439050        -1.713166
 O         1.617681         0.774414        -1.342163
 O         2.287931         0.142716         0.816445
 H        -0.090447        -0.284344         1.237626
 H        -0.425981         1.104806         0.248020
 H        -0.858138        -0.338073        -0.292644
 H         1.600935        -2.073336         0.237569
 H         0.927708        -1.886578        -1.498038
 H         3.833543        -1.641385        -1.576239
 H         4.393603        -0.484678         0.955041
 H         3.818408         2.012849        -0.305793
 H         4.956106         0.938558        -1.030817
 H         3.186393         0.611304        -2.806147
