19
Iteration:   956
 C        -0.073695         0.085571         0.359919
 C         1.343966        -0.109130        -0.108140
 C         1.712174        -1.429381        -0.839767
 C         3.086958        -1.019672        -1.191164
 C         3.564962        -0.211749         0.142069
 C         3.941669         0.932540        -0.786738
 C         2.878834         0.486107        -1.749661
 O         1.602280         0.725462        -1.254492
 O         2.363947         0.145229         0.979419
 H        -0.440331        -0.601457         1.242131
 H        -0.046028         1.224876         0.589590
 H        -0.745535        -0.073015        -0.470606
 H         1.741128        -2.422311        -0.307453
 H         1.065063        -1.380690        -1.695778
 H         3.805978        -1.763876        -1.536119
 H         4.358407        -0.696237         0.694883
 H         3.997799         1.905245        -0.356141
 H         4.999624         0.643096        -1.323102
 H         2.952161         0.685102        -2.809790
