19
Iteration:  4725
 C        -0.042033         0.110253         0.310554
 C         1.311380        -0.114185        -0.276540
 C         1.671018        -1.565635        -0.661479
 C         3.139279        -1.074946        -1.076440
 C         3.542892        -0.196824         0.279869
 C         3.936168         1.017749        -0.676463
 C         2.951179         0.363865        -1.691276
 O         1.660577         0.829124        -1.437172
 O         2.275670         0.195261         0.786634
 H         0.037652        -0.183294         1.349174
 H        -0.311390         1.177198         0.283633
 H        -0.678288        -0.488392        -0.290669
 H         1.705387        -2.246099         0.188036
 H         1.026936        -2.140946        -1.529822
 H         3.925147        -1.773400        -1.325616
 H         4.191362        -0.525745         1.095334
 H         3.583929         2.008636        -0.511655
 H         4.936576         1.132833        -1.118724
 H         3.091274         0.432114        -2.700637
