19
Iteration:   324charge 0 multiplicity 1
 C        -0.064540         0.124984         0.426617
 C         1.342138        -0.074722        -0.207732
 C         1.722277        -1.550658        -0.729064
 C         3.122249        -1.051275        -1.157113
 C         3.571246        -0.271945         0.112909
 C         3.957315         0.946579        -0.775699
 C         2.850086         0.451774        -1.719878
 O         1.630373         0.932573        -1.226241
 O         2.310720         0.074402         0.783703
 H        -0.320609        -0.851140         0.976568
 H        -0.129172         0.957694         1.191220
 H        -0.889882         0.204921        -0.395843
 H         1.693785        -2.058929         0.298809
 H         1.272434        -2.261831        -1.534856
 H         3.912581        -1.621456        -1.644738
 H         4.260551        -0.720098         0.827147
 H         3.846624         1.969020        -0.491155
 H         5.029695         0.910663        -1.255760
 H         2.864231         0.729817        -2.757415
