19
Iteration:  3926charge 0 multiplicity 1
 C        -0.074785         0.165345         0.350691
 C         1.342291        -0.139345        -0.239351
 C         1.766395        -1.580799        -0.727105
 C         3.125925        -0.984449        -1.113477
 C         3.539304        -0.131641         0.250954
 C         3.986337         0.951551        -0.684833
 C         2.983187         0.439165        -1.742144
 O         1.618726         0.760389        -1.387411
 O         2.173336         0.127786         0.849686
 H        -0.269923        -0.286414         1.422856
 H        -0.290714         1.263773         0.509586
 H        -0.697278        -0.427269        -0.374616
 H         1.642145        -2.331610         0.061911
 H         1.087212        -1.869695        -1.509901
 H         3.881989        -1.567904        -1.595846
 H         4.286930        -0.670442         0.853539
 H         4.054934         2.014009        -0.485895
 H         4.972117         0.665661        -1.116642
 H         3.237959         0.625377        -2.764285
