19
Iteration:  2753
 C        -0.098141         0.150640         0.264018
 C         1.253098        -0.093712        -0.191191
 C         1.787202        -1.434226        -0.684453
 C         3.157242        -1.028365        -1.085743
 C         3.504808        -0.209637         0.182838
 C         3.998903         0.899681        -0.757912
 C         2.949553         0.424453        -1.742437
 O         1.589795         0.722213        -1.261577
 O         2.296156         0.162759         0.824767
 H        -0.204085        -0.553275         1.116428
 H        -0.195515         1.218269         0.433811
 H        -0.727058        -0.103921        -0.629516
 H         1.861321        -2.028557         0.213104
 H         1.175670        -1.955621        -1.485195
 H         3.813864        -1.721098        -1.474668
 H         4.206372        -0.698625         0.897968
 H         3.924896         1.937426        -0.374667
 H         4.967939         0.714521        -1.171637
 H         2.973766         0.788224        -2.820591
