19
Iteration:  2232
 C        -0.125153         0.106909         0.392588
 C         1.281745        -0.065773        -0.254223
 C         1.751560        -1.460133        -0.728878
 C         3.175677        -1.105414        -1.025180
 C         3.540872        -0.143918         0.249335
 C         3.949655         0.945552        -0.774800
 C         2.933347         0.303228        -1.734257
 O         1.663755         0.909414        -1.366070
 O         2.264637         0.096606         0.809784
 H        -0.203176        -0.734839         1.101883
 H        -0.012120         1.014088         0.984276
 H        -0.900080         0.025264        -0.546672
 H         1.609585        -2.290399        -0.058435
 H         1.165667        -1.832810        -1.544641
 H         3.724774        -1.806803        -1.697833
 H         4.265333        -0.415318         1.017517
 H         3.859216         1.972890        -0.585085
 H         5.018139         0.912278        -0.959252
 H         3.131927         0.361365        -2.772115
