19
Iteration:  3478
 C        -0.070399         0.184793         0.293514
 C         1.321594        -0.114178        -0.218203
 C         1.714487        -1.499664        -0.673068
 C         3.148838        -1.009908        -1.001256
 C         3.530513        -0.185386         0.187527
 C         3.998046         1.054724        -0.702026
 C         2.958788         0.388234        -1.751384
 O         1.615981         0.742179        -1.372629
 O         2.207713         0.080636         0.781615
 H        -0.088128        -0.460822         1.175662
 H        -0.010384         1.163416         0.756846
 H        -0.769420        -0.232998        -0.347973
 H         1.741121        -2.425586        -0.029873
 H         1.286067        -1.929537        -1.643885
 H         3.899437        -1.745598        -1.484642
 H         4.165143        -0.424855         1.069273
 H         3.921305         2.043597        -0.198543
 H         5.004957         0.818689        -1.135434
 H         3.049004         0.469522        -2.795887
