19
Iteration:  3450charge 0 multiplicity 1
 C        -0.142419         0.095550         0.266679
 C         1.327657        -0.094603        -0.204476
 C         1.685290        -1.489111        -0.780735
 C         3.123692        -1.033601        -1.031506
 C         3.568057        -0.203154         0.233493
 C         3.894933         0.977367        -0.743108
 C         2.964475         0.326805        -1.741962
 O         1.635223         0.751569        -1.348849
 O         2.356815         0.252613         0.911399
 H        -0.425626        -0.736938         0.944571
 H         0.012268         1.003405         0.842832
 H        -0.807106         0.008425        -0.699431
 H         1.692168        -2.396211        -0.225675
 H         1.233130        -1.815225        -1.665666
 H         3.863505        -1.737002        -1.303543
 H         4.311077        -0.459907         0.989270
 H         3.667607         1.925999        -0.240443
 H         4.925201         0.960562        -1.181586
 H         3.201763         0.496071        -2.903197
