19
Iteration:  1790charge 0 multiplicity 1
 C        -0.068067         0.206388         0.441950
 C         1.320524        -0.136440        -0.257005
 C         1.699278        -1.503181        -0.723794
 C         3.147475        -1.019182        -1.109025
 C         3.575933        -0.210923         0.196123
 C         3.922500         0.979365        -0.669345
 C         2.935949         0.464329        -1.818766
 O         1.616196         0.722431        -1.395095
 O         2.275900         0.094593         0.838375
 H        -0.142644        -0.571081         1.233368
 H         0.161410         1.192096         0.794990
 H        -0.762005         0.123257        -0.346855
 H         1.569025        -2.235917         0.025709
 H         1.105698        -1.836550        -1.516157
 H         3.820685        -1.912402        -1.347437
 H         4.267391        -0.745539         0.863652
 H         3.722683         1.919921        -0.186161
 H         4.911727         0.983683        -1.006890
 H         3.272939         0.906174        -2.799760
