19
Iteration:   656
 C        -0.120302         0.185017         0.460694
 C         1.342151        -0.114206        -0.087654
 C         1.699920        -1.466700        -0.913715
 C         3.043651        -0.983770        -1.120423
 C         3.606845        -0.173483         0.116441
 C         3.968951         0.955102        -0.735282
 C         2.911799         0.410125        -1.781203
 O         1.619371         0.699925        -1.248537
 O         2.406127         0.075621         0.891918
 H        -0.444186        -0.569820         1.083502
 H        -0.477928         1.156426         0.841599
 H        -0.739823         0.148019        -0.562433
 H         1.569071        -2.436381        -0.418865
 H         1.101134        -1.394888        -1.800610
 H         3.817340        -1.558095        -1.631051
 H         4.180462        -0.942614         0.636852
 H         3.748988         2.129984        -0.322443
 H         5.053662         0.943009        -0.991635
 H         2.960822         0.628314        -2.851518
