19
Iteration:   585
 C        -0.123029         0.065645         0.524401
 C         1.336550        -0.173100        -0.072172
 C         1.672598        -1.355453        -0.880675
 C         3.096244        -0.988386        -1.217165
 C         3.506388        -0.252635         0.135376
 C         4.006802         0.932221        -0.751857
 C         2.987441         0.418372        -1.822206
 O         1.631923         0.744921        -1.256295
 O         2.367251         0.178057         0.877907
 H        -0.526510        -0.476560         1.507370
 H        -0.278814         1.167735         0.669050
 H        -0.794953        -0.199166        -0.271410
 H         1.580175        -2.404299        -0.526770
 H         1.121390        -1.313348        -1.893835
 H         3.630786        -1.852785        -1.613803
 H         4.202465        -0.642197         0.964109
 H         3.754350         1.866520        -0.282960
 H         5.152100         0.972009        -0.998440
 H         2.989155         0.616970        -2.948449
