19
Iteration:  3637
 C        -0.127597         0.181185         0.283760
 C         1.345255        -0.143861        -0.251497
 C         1.738252        -1.521830        -0.701104
 C         3.128589        -1.022329        -1.059247
 C         3.568366        -0.121911         0.246129
 C         3.894729         1.042480        -0.744851
 C         2.998626         0.361987        -1.731863
 O         1.668794         0.711517        -1.305205
 O         2.264846         0.097022         0.802292
 H        -0.555878        -0.647516         0.925933
 H        -0.241495         1.161121         0.811587
 H        -0.864595         0.298842        -0.485798
 H         1.728143        -2.166752         0.147589
 H         1.045218        -1.965134        -1.357631
 H         3.897327        -1.683457        -1.561121
 H         4.342877        -0.508707         0.912625
 H         3.844668         2.114830        -0.436674
 H         4.988812         0.997496        -0.986513
 H         2.931905         0.412846        -2.885464
