19
Iteration:   836charge 0 multiplicity 1
 C        -0.050053         0.055658         0.383487
 C         1.299743        -0.171226        -0.166364
 C         1.653613        -1.496701        -0.743177
 C         2.966617        -0.953938        -1.189154
 C         3.602466        -0.184388         0.151432
 C         4.000040         0.992687        -0.765288
 C         2.961864         0.473523        -1.823669
 O         1.684668         0.832577        -1.304348
 O         2.320616         0.035819         0.949994
 H        -0.193927        -0.570943         1.300171
 H         0.045869         1.114936         0.714516
 H        -0.768129        -0.261424        -0.281709
 H         1.594657        -2.333689        -0.022623
 H         0.795420        -1.598843        -1.405646
 H         3.743294        -1.586871        -1.614395
 H         4.354843        -0.599712         0.823597
 H         3.779788         1.969982        -0.363292
 H         5.105138         0.828366        -1.214421
 H         2.856556         0.817874        -2.897366
