19
Iteration:  2874
 C        -0.084608         0.122744         0.276584
 C         1.364411        -0.128606        -0.173941
 C         1.640611        -1.454397        -0.693507
 C         3.155318        -1.000594        -1.061322
 C         3.561713        -0.163652         0.191910
 C         4.029298         1.003885        -0.746601
 C         2.902264         0.339928        -1.710840
 O         1.604451         0.726629        -1.314597
 O         2.290432         0.145750         0.830755
 H        -0.391663        -0.360294         1.194072
 H        -0.206039         1.199974         0.271707
 H        -0.535082        -0.340008        -0.566966
 H         1.476079        -2.366644        -0.183993
 H         1.130368        -1.617679        -1.662998
 H         3.815404        -1.682174        -1.442635
 H         4.254816        -0.531609         0.976511
 H         3.805253         1.991679        -0.346032
 H         5.028781         1.001445        -1.124548
 H         3.082733         0.377731        -2.821364
