19
Iteration:  1691charge 0 multiplicity 1
 C        -0.037113         0.118502         0.401453
 C         1.296172        -0.051020        -0.174727
 C         1.722648        -1.430752        -0.823040
 C         3.136797        -1.044364        -1.049373
 C         3.625740        -0.222346         0.215294
 C         3.976773         0.981914        -0.675182
 C         2.850539         0.376042        -1.707623
 O         1.547153         0.769199        -1.360302
 O         2.303878         0.097772         0.774613
 H        -0.061001        -0.549804         1.245521
 H         0.034525         1.160022         0.691289
 H        -0.686538        -0.025269        -0.545083
 H         1.571758        -2.268340        -0.069762
 H         1.245363        -1.563655        -1.823938
 H         3.908669        -1.704971        -1.464535
 H         4.269261        -0.541393         1.079351
 H         3.955451         2.019847        -0.356357
 H         4.866510         0.672408        -1.237461
 H         3.022352         0.456109        -2.854034
