19
Iteration:   734charge 0 multiplicity 1
 C         0.001465         0.171386         0.353488
 C         1.332278        -0.093070        -0.181073
 C         1.652741        -1.462305        -0.840598
 C         3.117739        -1.024063        -1.079516
 C         3.618103        -0.249507         0.169197
 C         3.941037         0.958930        -0.743783
 C         2.860399         0.469452        -1.674901
 O         1.495046         0.765840        -1.230388
 O         2.438338         0.053059         0.799523
 H        -0.105988        -0.659954         1.063842
 H        -0.146619         1.131549         0.814757
 H        -0.740394         0.177206        -0.499743
 H         1.464312        -2.352642        -0.264393
 H         1.164660        -1.462257        -1.820332
 H         3.910777        -1.525512        -1.622628
 H         4.259975        -0.733260         0.945596
 H         3.812536         1.999254        -0.147423
 H         4.918490         0.835270        -1.292842
 H         2.850899         0.497839        -2.777029
