19
Iteration:  1878
 C        -0.067416         0.093155         0.294349
 C         1.293013        -0.105240        -0.254342
 C         1.741068        -1.521946        -0.665733
 C         3.091636        -1.096357        -1.032286
 C         3.591471        -0.177805         0.119742
 C         3.984202         0.995824        -0.755501
 C         2.927707         0.422426        -1.690947
 O         1.644023         0.890499        -1.315602
 O         2.267453         0.075774         0.813537
 H        -0.218035        -0.550555         1.301091
 H        -0.039586         1.190414         0.701853
 H        -1.002603        -0.022192        -0.317063
 H         1.508204        -2.180850         0.163078
 H         1.154127        -1.906365        -1.435871
 H         3.886607        -1.813326        -1.399168
 H         4.232434        -0.725657         0.822274
 H         3.870050         2.015903        -0.416047
 H         4.851517         0.725818        -1.238538
 H         3.041845         0.750671        -2.800159
