19
Iteration:  1172charge 0 multiplicity 1
 C        -0.154470         0.192327         0.377626
 C         1.287080        -0.080070        -0.123453
 C         1.733927        -1.570338        -0.870834
 C         3.122694        -1.086975        -1.142941
 C         3.669803        -0.242478         0.162758
 C         3.957503         0.988542        -0.704130
 C         2.864631         0.438739        -1.716647
 O         1.578024         0.786091        -1.238745
 O         2.406155         0.134946         0.827811
 H        -0.424795        -0.320289         1.319124
 H        -0.296410         1.281058         0.450855
 H        -0.797529        -0.161656        -0.393371
 H         1.510429        -2.436985        -0.208342
 H         1.231690        -1.694265        -1.831461
 H         3.842157        -1.626343        -1.771029
 H         4.394053        -0.689624         0.884994
 H         3.830902         1.972841        -0.044815
 H         4.942537         0.917265        -1.318104
 H         2.856904         0.606108        -2.760903
