19
Iteration:    71charge 0 multiplicity 1
 C        -0.125587         0.198127         0.416010
 C         1.257144        -0.188205        -0.150565
 C         1.731289        -1.478496        -0.902303
 C         3.128855        -0.995691        -1.110361
 C         3.651966        -0.279872         0.158283
 C         3.965721         0.956608        -0.734813
 C         2.870045         0.456509        -1.652676
 O         1.527319         0.777372        -1.276329
 O         2.422775         0.114182         0.831623
 H        -0.317710        -0.318875         1.477057
 H        -0.052518         1.318676         0.586106
 H        -0.861750        -0.112669        -0.383843
 H         1.595333        -2.424488        -0.212088
 H         1.152445        -1.573229        -1.889125
 H         3.871104        -1.671557        -1.587257
 H         4.449650        -0.803347         0.758575
 H         3.867935         2.003630        -0.367173
 H         4.911591         0.919949        -1.282021
 H         3.035582         0.629686        -2.728090
