19
Iteration:   546charge 0 multiplicity 1
 C        -0.095568         0.096818         0.367502
 C         1.235535        -0.099112        -0.228945
 C         1.753967        -1.433946        -0.711045
 C         3.091949        -0.989973        -1.106005
 C         3.626940        -0.287313         0.159895
 C         4.012015         0.926706        -0.777407
 C         2.907864         0.499432        -1.802370
 O         1.551422         0.928034        -1.211377
 O         2.343435        -0.045801         0.802576
 H        -0.072572        -0.655987         1.106228
 H         0.050558         1.096954         0.775576
 H        -0.935762         0.195978        -0.337069
 H         1.889308        -1.945143         0.242608
 H         1.193661        -1.979397        -1.416568
 H         3.777933        -1.686068        -1.639165
 H         4.314845        -0.643182         0.902191
 H         3.911494         1.994817        -0.377580
 H         4.906131         0.538293        -1.125227
 H         2.858078         0.679534        -2.875640
