19
Iteration:  3812charge 0 multiplicity 1
 C        -0.033546         0.115406         0.296028
 C         1.311321        -0.125766        -0.240710
 C         1.716927        -1.442441        -0.789808
 C         3.161157        -1.029920        -1.035928
 C         3.546911        -0.136398         0.261988
 C         4.003554         0.974378        -0.726230
 C         2.935014         0.377570        -1.684988
 O         1.598103         0.681234        -1.336632
 O         2.257294         0.184596         0.808632
 H        -0.320714        -0.761274         0.833490
 H        -0.210761         0.904646         1.015700
 H        -0.774787         0.143807        -0.493148
 H         1.707773        -2.159877         0.020757
 H         0.949384        -1.571076        -1.543533
 H         3.941120        -1.619027        -1.598722
 H         4.067684        -0.574310         1.091381
 H         3.830122         2.025038        -0.330846
 H         5.025329         0.806410        -1.176848
 H         3.010390         0.420919        -2.800518
