19
Iteration:   268charge 0 multiplicity 1
 C        -0.025921         0.085002         0.397654
 C         1.345078        -0.114110        -0.170910
 C         1.675607        -1.457242        -0.770236
 C         3.067580        -1.029790        -1.159255
 C         3.637262        -0.261264         0.109822
 C         3.916459         0.925752        -0.697953
 C         2.905083         0.389521        -1.729439
 O         1.590251         0.884579        -1.221188
 O         2.372318         0.116061         0.781830
 H        -0.079066        -0.579525         1.252659
 H        -0.063802         1.168220         0.719534
 H        -0.921899        -0.064761        -0.342218
 H         1.556640        -2.359161        -0.082415
 H         1.138363        -1.561120        -1.783765
 H         3.650235        -1.673936        -1.776613
 H         4.326838        -0.602781         0.909514
 H         3.439361         1.823595        -0.316321
 H         4.991391         1.086561        -1.008963
 H         2.918485         0.561423        -2.761141
