19
Iteration:   408
 C        -0.040973         0.079302         0.393075
 C         1.334634        -0.103476        -0.142429
 C         1.639101        -1.525539        -0.738869
 C         3.031729        -1.004721        -1.230272
 C         3.534883        -0.229628         0.139647
 C         3.981470         1.008308        -0.741864
 C         2.942755         0.478736        -1.802090
 O         1.666061         0.837749        -1.228610
 O         2.343524         0.051538         0.868847
 H        -0.089761        -0.456135         1.269976
 H        -0.412036         1.088403         0.509611
 H        -0.852226        -0.297595        -0.291471
 H         1.866276        -2.300952        -0.005649
 H         0.997877        -1.683306        -1.583208
 H         3.732354        -1.775561        -1.521503
 H         4.376341        -0.693531         0.750672
 H         3.708341         1.973368        -0.276974
 H         4.987210         0.958075        -1.225517
 H         3.058250         0.785790        -2.857889
