19
Iteration:  1680charge 0 multiplicity 1
 C         0.012687         0.169524         0.391229
 C         1.330352        -0.166441        -0.253977
 C         1.666781        -1.491536        -0.823872
 C         3.108721        -0.983856        -1.037608
 C         3.575614        -0.154351         0.247408
 C         3.999066         0.966501        -0.766084
 C         2.933150         0.404710        -1.701299
 O         1.553341         0.779722        -1.384673
 O         2.293109         0.060623         0.869544
 H        -0.192187        -0.510846         1.204863
 H        -0.041957         1.151109         0.846271
 H        -1.007732         0.066912        -0.143711
 H         1.607448        -2.394837        -0.150005
 H         1.074943        -1.697500        -1.747927
 H         3.770438        -1.620441        -1.620578
 H         4.316357        -0.473127         1.020047
 H         3.870644         1.972166        -0.385093
 H         5.060150         0.891063        -1.081555
 H         3.087795         0.495628        -2.836274
