19
Iteration:  3126charge 0 multiplicity 1
 C        -0.085535         0.132965         0.293374
 C         1.306524        -0.122924        -0.215704
 C         1.718746        -1.478622        -0.661706
 C         3.118281        -1.004316        -1.008762
 C         3.621690        -0.181455         0.210411
 C         3.971897         1.003951        -0.696711
 C         2.938113         0.314931        -1.700114
 O         1.602430         0.852150        -1.420594
 O         2.273283         0.062238         0.776904
 H         0.024238        -0.054527         1.343633
 H        -0.215824         1.199430         0.288873
 H        -0.783651        -0.509064        -0.271786
 H         1.716785        -2.209740         0.216457
 H         1.064252        -1.876097        -1.565870
 H         3.833771        -1.714863        -1.520232
 H         4.064185        -0.730705         1.063223
 H         3.621495         2.034450        -0.528004
 H         5.033508         0.949025        -1.112595
 H         3.159430         0.570440        -2.733042
