19
Iteration:  3260charge 0 multiplicity 1
 C        -0.036043         0.152250         0.321245
 C         1.286888        -0.156368        -0.248306
 C         1.771277        -1.481320        -0.711638
 C         3.150676        -0.956482        -1.022661
 C         3.530893        -0.179246         0.212461
 C         4.009645         0.978078        -0.762942
 C         2.953562         0.344317        -1.739096
 O         1.590450         0.744797        -1.357170
 O         2.217207         0.136335         0.824126
 H        -0.426379        -0.514754         1.082053
 H        -0.092056         1.156541         0.728191
 H        -0.852150         0.142939        -0.347926
 H         1.600940        -2.216500         0.075962
 H         1.090415        -1.786128        -1.520822
 H         3.915434        -1.694826        -1.370959
 H         4.186380        -0.457132         1.059528
 H         3.834562         2.040624        -0.427814
 H         5.109100         0.862841        -0.970174
 H         3.312491         0.215293        -2.837392
