19
Iteration:  2774
 C        -0.162701         0.106575         0.311444
 C         1.306293        -0.080319        -0.241097
 C         1.685897        -1.602143        -0.641981
 C         3.069847        -1.065821        -1.009317
 C         3.612005        -0.171717         0.202569
 C         4.039327         1.028625        -0.768654
 C         2.955773         0.380613        -1.744516
 O         1.625300         0.861320        -1.375491
 O         2.311308         0.097103         0.826946
 H        -0.292330        -0.804122         0.906374
 H        -0.184990         1.052394         0.808306
 H        -0.836605         0.173968        -0.569781
 H         1.568214        -2.142632         0.320053
 H         1.015794        -1.867512        -1.507388
 H         3.737265        -1.638941        -1.558636
 H         4.392365        -0.437580         0.933759
 H         3.958373         2.014300        -0.281673
 H         5.006346         0.877324        -1.224185
 H         3.179444         0.550984        -2.817771
