19
Iteration:  4185
 C        -0.090740         0.185165         0.259006
 C         1.306475        -0.203724        -0.195786
 C         1.750445        -1.479193        -0.744305
 C         3.100214        -1.024198        -0.986594
 C         3.589622        -0.143651         0.252496
 C         3.969195         1.006491        -0.752986
 C         2.983596         0.372141        -1.700803
 O         1.554976         0.738526        -1.319402
 O         2.303036         0.132289         0.770959
 H        -0.468458        -0.498479         1.019886
 H        -0.020706         1.150235         0.711522
 H        -0.656208         0.073179        -0.610683
 H         1.493364        -2.338989        -0.122291
 H         1.085228        -1.884266        -1.524300
 H         3.687849        -1.622592        -1.680738
 H         4.354185        -0.180722         1.061522
 H         3.923371         2.036607        -0.436130
 H         5.022697         0.753005        -0.876517
 H         3.150336         0.284059        -2.803901
