19
Iteration:  4296
 C        -0.095547         0.169319         0.263020
 C         1.304696        -0.154505        -0.288756
 C         1.664681        -1.537912        -0.655108
 C         3.061238        -1.057057        -1.028847
 C         3.615149        -0.146453         0.203447
 C         3.956354         1.027095        -0.715065
 C         2.989912         0.392241        -1.693171
 O         1.640472         0.794827        -1.391558
 O         2.321254         0.085494         0.851274
 H        -0.215730        -0.371088         1.163911
 H        -0.440896         1.187989         0.354803
 H        -0.834465        -0.226903        -0.389436
 H         1.372316        -2.269235         0.250335
 H         1.181108        -1.867654        -1.663016
 H         3.885523        -1.689433        -1.246099
 H         4.358837        -0.570857         0.879770
 H         3.827396         2.066981        -0.377155
 H         4.958960         1.002450        -1.081876
 H         3.170783         0.600846        -2.740125
