19
Iteration:  1604
 C        -0.128600         0.076784         0.375985
 C         1.349538        -0.104897        -0.141289
 C         1.704868        -1.431016        -0.713792
 C         3.091624        -0.977155        -1.193931
 C         3.592154        -0.228428         0.176280
 C         4.039892         0.904477        -0.736766
 C         2.934915         0.392396        -1.730620
 O         1.608194         0.783018        -1.275602
 O         2.279192         0.151596         0.816702
 H        -0.553520        -0.574147         1.077835
 H        -0.355560         1.090817         0.667572
 H        -0.757496        -0.056374        -0.516972
 H         1.684450        -2.360142        -0.063172
 H         1.140181        -1.763495        -1.605180
 H         3.818306        -1.581068        -1.725195
 H         4.269159        -0.552482         1.011191
 H         3.936768         1.964661        -0.425937
 H         5.096068         0.786654        -1.172661
 H         3.118005         0.768567        -2.796503
