19
Iteration:  4431
 C        -0.107660         0.198012         0.222720
 C         1.293387        -0.119801        -0.213763
 C         1.805089        -1.600471        -0.655282
 C         3.157209        -1.058420        -1.047972
 C         3.505476        -0.165724         0.269023
 C         3.997722         0.940303        -0.794345
 C         2.957280         0.341301        -1.744999
 O         1.541659         0.868828        -1.324152
 O         2.269639         0.124060         0.844142
 H        -0.560010        -0.656153         0.799615
 H        -0.010044         1.119753         0.798318
 H        -0.669307         0.435993        -0.714099
 H         2.125622        -2.219544         0.153400
 H         1.227167        -2.073676        -1.542884
 H         4.073652        -1.634458        -1.485164
 H         4.207118        -0.155964         1.122057
 H         3.793029         1.961069        -0.426406
 H         5.044112         0.597373        -1.080331
 H         3.085444         0.578997        -2.832697
