19
Iteration:  1906
 C        -0.049643         0.204631         0.410394
 C         1.352388        -0.105588        -0.155445
 C         1.785747        -1.400058        -0.823787
 C         3.102856        -0.960816        -1.111493
 C         3.562495        -0.231119         0.177384
 C         4.006895         0.941847        -0.623864
 C         2.918982         0.348600        -1.694429
 O         1.522041         0.649813        -1.389592
 O         2.292312         0.174095         0.777285
 H        -0.263939        -0.251260         1.297987
 H        -0.072006         1.233828         0.490838
 H        -0.822243        -0.161604        -0.328150
 H         1.729051        -2.272332        -0.075309
 H         1.108891        -1.858228        -1.630698
 H         3.922295        -1.549511        -1.561536
 H         4.139968        -0.810985         0.916055
 H         3.609742         1.864396        -0.179251
 H         5.097291         0.759375        -1.024476
 H         2.970612         0.556452        -2.722150
