19
Iteration:  2714
 C        -0.075476         0.184584         0.350054
 C         1.333271        -0.118397        -0.299691
 C         1.709250        -1.441795        -0.773544
 C         3.139088        -1.055660        -0.978241
 C         3.557686        -0.168515         0.192640
 C         3.941939         1.030510        -0.762457
 C         2.997388         0.362482        -1.721238
 O         1.589332         0.690577        -1.309338
 O         2.304257         0.083459         0.821055
 H        -0.264329        -0.021262         1.380282
 H        -0.346938         1.251592         0.367996
 H        -0.914360        -0.328964        -0.076928
 H         1.412720        -2.246326        -0.072257
 H         1.274332        -1.643539        -1.730236
 H         3.828819        -1.847717        -1.347169
 H         4.219013        -0.465675         0.994401
 H         3.733015         2.019837        -0.327207
 H         4.987045         1.017385        -1.176051
 H         3.145068         0.617513        -2.757728
