19
Iteration:  1391
 C        -0.113976         0.189987         0.340865
 C         1.291668        -0.115384        -0.199998
 C         1.715427        -1.394734        -0.815411
 C         3.170876        -1.032391        -1.094360
 C         3.676188        -0.179947         0.167314
 C         3.870128         0.944353        -0.704631
 C         2.916692         0.369115        -1.742092
 O         1.586674         0.815227        -1.290808
 O         2.361871        -0.027696         0.870600
 H        -0.393389        -0.229037         1.320802
 H        -0.211740         1.265282         0.520511
 H        -0.908815        -0.159486        -0.312500
 H         1.698215        -2.289426        -0.210182
 H         1.076525        -1.534131        -1.676124
 H         3.906620        -1.773499        -1.516425
 H         4.387185        -0.431651         0.928020
 H         3.721658         1.980138        -0.362169
 H         4.917651         0.934875        -1.083703
 H         2.915455         0.521062        -2.768325
