19
Iteration:  4504charge 0 multiplicity 1
 C        -0.088367         0.149312         0.300167
 C         1.361672        -0.150775        -0.231284
 C         1.715730        -1.591831        -0.706498
 C         3.100261        -1.036837        -1.022360
 C         3.488873        -0.128831         0.211382
 C         4.059311         0.981728        -0.701509
 C         3.041155         0.438516        -1.766231
 O         1.584684         0.751170        -1.374795
 O         2.213388         0.171560         0.815010
 H        -0.031135        -0.272190         1.276328
 H        -0.229985         1.199216         0.368166
 H        -0.920404        -0.255056        -0.292496
 H         1.778243        -2.225307         0.301743
 H         1.068798        -1.841671        -1.624651
 H         3.950513        -1.773778        -1.136405
 H         4.134251        -0.722703         0.866195
 H         3.757162         2.026504        -0.513950
 H         5.079702         0.794281        -0.957377
 H         3.103889         0.635329        -2.804793
