19
Iteration:  1011
 C        -0.022393         0.179261         0.492187
 C         1.321481        -0.109755        -0.190262
 C         1.704082        -1.555252        -0.859382
 C         3.104551        -0.976576        -1.176550
 C         3.543193        -0.237821         0.195039
 C         3.952891         0.965659        -0.716878
 C         2.944451         0.445046        -1.733735
 O         1.570158         0.760992        -1.299358
 O         2.319739         0.114159         0.823213
 H        -0.024320        -0.411557         1.482369
 H        -0.107862         1.311272         0.544983
 H        -0.789503        -0.214565        -0.257364
 H         1.792606        -2.436533        -0.149149
 H         1.019922        -1.739750        -1.670933
 H         3.801646        -1.565116        -1.770927
 H         4.287442        -0.627861         0.876985
 H         3.740635         1.922124        -0.297167
 H         5.076440         0.987741        -0.909587
 H         2.990058         0.506873        -2.821273
