19
Iteration:  1803charge 0 multiplicity 1
 C        -0.018322         0.189732         0.380212
 C         1.253195        -0.072922        -0.277018
 C         1.792369        -1.510262        -0.726649
 C         3.142551        -1.058410        -1.077929
 C         3.551630        -0.280786         0.175567
 C         3.911127         0.953433        -0.672689
 C         2.941916         0.429124        -1.712993
 O         1.559896         0.841183        -1.455657
 O         2.310668         0.074008         0.865989
 H        -0.285441        -0.550376         1.187532
 H        -0.081884         1.135580         0.941793
 H        -0.857565         0.242039        -0.143429
 H         1.980811        -1.979273         0.253907
 H         1.276996        -2.103887        -1.478331
 H         3.882434        -1.575798        -1.718995
 H         4.257044        -0.571002         0.946773
 H         3.716576         1.964608        -0.211982
 H         4.926614         0.826815        -1.063543
 H         2.966054         0.431114        -2.814211
