19
Iteration:  4145
 C        -0.054993         0.135469         0.353020
 C         1.292637        -0.147468        -0.232274
 C         1.739398        -1.489883        -0.691388
 C         3.132391        -1.014263        -1.137503
 C         3.498373        -0.150228         0.237518
 C         3.956569         0.953998        -0.674896
 C         2.982081         0.345005        -1.725564
 O         1.648474         0.797149        -1.366127
 O         2.263780         0.153611         0.777140
 H        -0.154648        -0.307355         1.387181
 H        -0.232033         1.276474         0.420765
 H        -0.844327        -0.352081        -0.326356
 H         1.860200        -2.238684         0.125106
 H         1.206129        -1.848898        -1.682543
 H         3.820997        -1.889477        -1.384028
 H         4.109564        -0.512775         1.081491
 H         3.537746         1.973773        -0.388622
 H         5.044504         0.940849        -1.024321
 H         3.105502         0.419265        -2.801540
