19
Iteration:  1414charge 0 multiplicity 1
 C        -0.000044         0.203574         0.311169
 C         1.344829        -0.135745        -0.182621
 C         1.717878        -1.587469        -0.814117
 C         3.049968        -1.027006        -1.055660
 C         3.584881        -0.262344         0.163853
 C         3.974370         1.007412        -0.738945
 C         2.892044         0.489044        -1.710951
 O         1.576271         0.781833        -1.234129
 O         2.341400         0.076995         0.833014
 H        -0.375575        -0.278649         1.136327
 H        -0.129382         1.224985         0.476968
 H        -0.644203        -0.129545        -0.534631
 H         1.594646        -2.447393        -0.131063
 H         1.101789        -1.781030        -1.701296
 H         3.874439        -1.516101        -1.620721
 H         4.178448        -0.651673         0.969265
 H         3.735449         1.995078        -0.322117
 H         4.999325         1.174291        -1.237884
 H         2.824527         0.676990        -2.748748
