19
Iteration:  4565
 C        -0.093584         0.131908         0.231370
 C         1.339422        -0.113983        -0.183039
 C         1.715205        -1.474522        -0.746723
 C         3.078442        -1.043557        -1.019625
 C         3.585892        -0.111617         0.200544
 C         3.932344         1.019815        -0.712477
 C         2.989816         0.290240        -1.716807
 O         1.688586         0.739972        -1.339491
 O         2.240449         0.133122         0.837901
 H        -0.259971        -0.404870         1.219379
 H        -0.397994         1.227832         0.425440
 H        -0.837344        -0.392893        -0.414505
 H         1.707352        -2.153502         0.032495
 H         0.956232        -1.759584        -1.427117
 H         3.761191        -1.710237        -1.468584
 H         4.373050        -0.496979         0.871231
 H         3.554718         2.048163        -0.498747
 H         5.035760         1.077918        -0.989459
 H         3.281394         0.475741        -2.828566
