19
Iteration:    26charge 0 multiplicity 1
 C        -0.190525        -0.002146         0.456023
 C         1.230226        -0.023328        -0.238838
 C         1.717798        -1.488692        -0.762185
 C         3.115157        -1.026794        -1.106635
 C         3.559518        -0.254195         0.107194
 C         4.027554         0.956817        -0.816646
 C         3.009116         0.411665        -1.776979
 O         1.666426         0.995907        -1.202585
 O         2.320105         0.051505         0.800018
 H        -0.146092        -0.513606         1.613275
 H        -0.414692         1.081634         0.696496
 H        -0.976883        -0.447920        -0.169089
 H         1.699064        -2.254173         0.203650
 H         1.164091        -2.142402        -1.492282
 H         3.699631        -1.696093        -1.765304
 H         4.253367        -0.757809         0.846680
 H         3.851368         1.993429        -0.339855
 H         5.020341         0.795487        -1.160943
 H         3.049242         0.575047        -2.803258
