19
Iteration:  1466charge 0 multiplicity 1
 C        -0.014061         0.045749         0.371127
 C         1.312614        -0.185053        -0.175107
 C         1.627555        -1.501015        -0.855616
 C         3.055384        -1.014050        -1.021364
 C         3.601357        -0.184448         0.168852
 C         4.001948         0.940013        -0.694016
 C         2.927804         0.366252        -1.734589
 O         1.578874         0.895267        -1.314257
 O         2.361483         0.181541         0.806442
 H        -0.193457        -0.913860         1.050547
 H         0.086088         1.002958         1.012330
 H        -0.907091         0.029964        -0.368985
 H         1.338419        -2.264109        -0.143179
 H         1.184949        -1.593368        -1.823851
 H         3.812031        -1.600389        -1.622157
 H         4.182115        -0.512397         1.012668
 H         3.975280         1.964975        -0.353135
 H         4.962301         0.900447        -1.029178
 H         2.970346         0.414417        -2.786733
