19
Iteration:  1020
 C         0.028076         0.150901         0.438565
 C         1.332902        -0.052477        -0.130774
 C         1.767868        -1.483819        -0.823293
 C         3.110484        -0.935617        -1.127847
 C         3.591972        -0.195153         0.149907
 C         3.995626         0.923017        -0.683291
 C         2.863145         0.386793        -1.791391
 O         1.517876         0.759602        -1.367093
 O         2.289553         0.038638         0.871553
 H        -0.161208        -0.263967         1.520337
 H        -0.200601         1.237300         0.721061
 H        -0.670704        -0.128670        -0.316695
 H         1.514211        -2.484732        -0.406955
 H         1.186813        -1.490752        -1.743666
 H         3.852992        -1.523684        -1.645514
 H         4.274522        -0.516029         0.970222
 H         3.797048         1.795689        -0.188597
 H         4.955990         0.801392        -1.001972
 H         2.857126         0.536909        -2.828096
