19
Iteration:  2046charge 0 multiplicity 1
 C        -0.028096         0.231462         0.310767
 C         1.298070        -0.139995        -0.211779
 C         1.697787        -1.530800        -0.831795
 C         3.151024        -1.085034        -0.975572
 C         3.589284        -0.158079         0.162582
 C         3.952456         1.050951        -0.755808
 C         2.920188         0.375794        -1.744535
 O         1.617990         0.809093        -1.284562
 O         2.278317         0.034523         0.863705
 H        -0.380835        -0.457714         1.070669
 H        -0.159137         1.146767         0.887021
 H        -0.990765         0.174419        -0.356241
 H         1.338589        -2.385061        -0.144293
 H         1.301845        -1.826031        -1.894629
 H         3.934862        -1.813134        -1.242064
 H         4.412770        -0.433120         0.832743
 H         3.757118         1.990152        -0.288056
 H         4.968305         1.031684        -1.242705
 H         3.115816         0.403228        -2.798160
