19
Iteration:  1313charge 0 multiplicity 1
 C        -0.032723         0.100402         0.314697
 C         1.337248        -0.153391        -0.151988
 C         1.631945        -1.425286        -0.759282
 C         3.056273        -1.008332        -1.145619
 C         3.594501        -0.161884         0.158704
 C         3.992758         0.977471        -0.756009
 C         2.938206         0.445391        -1.744483
 O         1.627477         0.713573        -1.257814
 O         2.340752         0.109752         0.864041
 H        -0.486328        -0.723805         1.013044
 H        -0.233938         1.106703         0.855328
 H        -0.742296         0.173623        -0.495598
 H         1.604178        -2.274952        -0.080322
 H         1.070481        -1.661577        -1.629142
 H         3.735102        -1.716604        -1.671411
 H         4.228317        -0.573383         0.945502
 H         3.773598         1.996224        -0.266537
 H         5.057047         0.799510        -1.034112
 H         2.895577         0.669226        -2.791460
