19
Iteration:  1488
 C        -0.088413         0.157120         0.382833
 C         1.284504        -0.060757        -0.104459
 C         1.715267        -1.447392        -0.863969
 C         3.139423        -1.010657        -1.144428
 C         3.571976        -0.207895         0.181669
 C         3.971416         0.929672        -0.792374
 C         2.970765         0.396061        -1.742626
 O         1.636065         0.726635        -1.240977
 O         2.295211         0.119920         0.843106
 H        -0.284246        -0.808402         1.067407
 H        -0.293276         1.103067         0.985934
 H        -0.909479        -0.022694        -0.431593
 H         1.628884        -2.317748        -0.212079
 H         1.094833        -1.586270        -1.723764
 H         3.891763        -1.806813        -1.399234
 H         4.168627        -0.645471         0.973567
 H         3.801414         1.950146        -0.434100
 H         4.916871         0.971038        -1.211330
 H         2.916062         0.806448        -2.711933
