19
Iteration:  2465charge 0 multiplicity 1
 C        -0.037260         0.151960         0.303610
 C         1.276446        -0.059864        -0.369778
 C         1.694621        -1.504737        -0.635624
 C         3.126887        -1.028531        -0.953121
 C         3.523337        -0.218095         0.179459
 C         3.985029         1.014866        -0.703588
 C         2.916012         0.437173        -1.739470
 O         1.598079         0.747234        -1.353270
 O         2.324483         0.072277         0.777037
 H         0.025833        -0.289836         1.368740
 H        -0.242149         1.274312         0.701237
 H        -0.826106        -0.153793        -0.387001
 H         1.713027        -2.061004         0.291230
 H         1.228670        -2.064217        -1.500363
 H         3.863026        -1.743427        -1.304454
 H         4.318579        -0.727173         0.703676
 H         3.849034         1.978007        -0.189880
 H         4.928078         0.758893        -1.132608
 H         3.163482         0.664459        -2.780783
