19
Iteration:   657
 C        -0.118452         0.174985         0.458279
 C         1.356101        -0.118936        -0.088515
 C         1.687450        -1.466815        -0.913984
 C         3.045742        -0.993294        -1.113700
 C         3.608082        -0.175303         0.116951
 C         3.977385         0.961189        -0.738034
 C         2.909313         0.409212        -1.776960
 O         1.607810         0.707954        -1.250728
 O         2.407329         0.080137         0.892443
 H        -0.437349        -0.587025         1.082925
 H        -0.481290         1.139734         0.829148
 H        -0.740641         0.186455        -0.557766
 H         1.548150        -2.428231        -0.436033
 H         1.102042        -1.353789        -1.807649
 H         3.824345        -1.564327        -1.595767
 H         4.193373        -0.944934         0.664317
 H         3.732593         2.121024        -0.362007
 H         5.055084         0.925385        -0.970755
 H         2.987438         0.661319        -2.898300
