19
Iteration:  3261charge 0 multiplicity 1
 C        -0.023710         0.143815         0.318334
 C         1.282576        -0.154902        -0.247222
 C         1.772314        -1.478713        -0.707786
 C         3.137273        -0.954883        -1.010475
 C         3.511622        -0.180275         0.211408
 C         4.016582         0.984675        -0.766996
 C         2.956597         0.342736        -1.745639
 O         1.593497         0.745730        -1.349206
 O         2.220623         0.134963         0.818186
 H        -0.424858        -0.510057         1.088416
 H        -0.103010         1.174631         0.720736
 H        -0.833366         0.118006        -0.362540
 H         1.604221        -2.206512         0.066022
 H         1.093641        -1.770552        -1.484697
 H         3.921246        -1.698198        -1.416306
 H         4.180424        -0.500327         1.048250
 H         3.822516         2.036757        -0.421608
 H         5.105976         0.895512        -0.976617
 H         3.371955         0.202023        -2.853686
