19
Iteration:  2510charge 0 multiplicity 1
 C        -0.084723         0.146728         0.249256
 C         1.305764        -0.170492        -0.165241
 C         1.653698        -1.497557        -0.831455
 C         3.120602        -1.042494        -1.005625
 C         3.543003        -0.141317         0.192198
 C         4.024996         0.979194        -0.788567
 C         2.945647         0.380766        -1.790522
 O         1.626887         0.708601        -1.269468
 O         2.319869         0.209242         0.936756
 H        -0.233526        -0.157283         1.318795
 H        -0.481713         1.195676         0.482261
 H        -0.822305        -0.346618        -0.352703
 H         1.562683        -2.227749        -0.115061
 H         1.258475        -1.539675        -1.857334
 H         3.872974        -1.839457        -1.252463
 H         4.299111        -0.567616         0.828057
 H         3.858223         1.962541        -0.432814
 H         4.999249         0.743477        -1.183883
 H         3.039294         0.495823        -2.891781
