19
Iteration:  3024
 C        -0.126002         0.102328         0.288440
 C         1.322375        -0.094845        -0.261182
 C         1.651131        -1.495124        -0.723541
 C         3.074883        -1.111142        -1.077112
 C         3.622682        -0.122047         0.253083
 C         3.978327         0.985256        -0.693904
 C         2.977226         0.384124        -1.700081
 O         1.579864         0.710101        -1.357553
 O         2.362119         0.234473         0.831428
 H        -0.262682        -0.903054         0.676926
 H        -0.168268         0.936698         1.003636
 H        -0.807980         0.272445        -0.540064
 H         1.606434        -2.383947        -0.068800
 H         1.021388        -1.590733        -1.666999
 H         3.818116        -1.763601        -1.381491
 H         4.309126        -0.498484         0.983466
 H         3.889802         2.000570        -0.254395
 H         4.980135         0.842645        -1.128140
 H         3.141832         0.457054        -2.699935
