19
Iteration:  2899charge 0 multiplicity 1
 C        -0.191917         0.129648         0.342304
 C         1.319209        -0.081353        -0.291000
 C         1.727675        -1.540008        -0.775981
 C         3.188923        -1.048271        -1.025445
 C         3.535401        -0.140836         0.266432
 C         3.981431         0.915485        -0.771089
 C         2.930926         0.391573        -1.760543
 O         1.601531         0.843328        -1.312220
 O         2.308325         0.136929         0.861725
 H        -0.174966        -0.266757         1.378398
 H        -0.385108         1.255822         0.329407
 H        -0.866655        -0.512411        -0.263670
 H         1.864315        -2.317332        -0.037737
 H         1.263825        -2.056833        -1.568413
 H         4.006499        -1.877141        -1.432402
 H         4.263679        -0.442693         1.095545
 H         4.022437         1.952891        -0.434949
 H         4.954960         0.725397        -1.273190
 H         3.195814         0.608142        -2.865478
