19
Iteration:  1477charge 0 multiplicity 1
 C        -0.068736         0.036091         0.424105
 C         1.347735        -0.109743        -0.189298
 C         1.668798        -1.458430        -0.866880
 C         3.105147        -1.083027        -1.106004
 C         3.543212        -0.214594         0.196467
 C         4.008259         1.001311        -0.754556
 C         2.927657         0.371932        -1.707149
 O         1.623771         0.796890        -1.239110
 O         2.318215         0.216550         0.810346
 H        -0.489589        -0.719308         1.219285
 H        -0.097776         1.086949         0.897253
 H        -0.716097         0.196197        -0.523111
 H         1.529026        -2.423370        -0.405348
 H         1.088534        -1.400896        -1.773994
 H         3.818376        -1.769484        -1.653093
 H         4.286575        -0.632885         0.864209
 H         3.735456         1.984285        -0.380472
 H         4.972858         0.796912        -1.043400
 H         3.025716         0.409395        -2.761811
