19
Iteration:  4969charge 0 multiplicity 1
 C        -0.175528         0.169193         0.261268
 C         1.304434        -0.114900        -0.198933
 C         1.699260        -1.565514        -0.744519
 C         3.156279        -1.092279        -0.996526
 C         3.597876        -0.094715         0.215248
 C         3.990670         0.990022        -0.757207
 C         2.975879         0.335825        -1.735308
 O         1.684697         0.741855        -1.346623
 O         2.283213         0.216795         0.848803
 H        -0.283405        -0.453117         1.159220
 H        -0.397632         1.212172         0.390600
 H        -0.861096        -0.443540        -0.371590
 H         1.412119        -2.332046         0.027577
 H         1.016884        -1.717434        -1.697887
 H         3.859125        -1.792967        -1.389477
 H         4.134849        -0.560479         1.033606
 H         3.522533         1.926516        -0.447780
 H         5.079022         1.134719        -0.947673
 H         3.059033         0.421611        -2.785035
