19
Iteration:   440charge 0 multiplicity 1
 C        -0.084416         0.105224         0.342433
 C         1.304696        -0.049122        -0.156204
 C         1.721078        -1.455965        -0.818305
 C         3.092292        -0.977046        -1.139922
 C         3.716548        -0.300217         0.208282
 C         3.992594         0.910267        -0.781745
 C         2.814589         0.429563        -1.623287
 O         1.501611         0.830574        -1.233063
 O         2.398796         0.101220         0.806548
 H        -0.142671        -0.536486         1.162210
 H        -0.382518         1.129879         0.615134
 H        -0.642056        -0.418258        -0.520874
 H         1.504686        -2.415843        -0.336105
 H         1.153746        -1.509303        -1.746464
 H         3.853089        -1.578302        -1.635081
 H         4.377367        -0.766871         1.058472
 H         4.078823         1.912320        -0.298839
 H         4.770893         0.974645        -1.539975
 H         2.940149         0.612023        -2.766597
