19
Iteration:  3468charge 0 multiplicity 1
 C        -0.115898         0.144280         0.335971
 C         1.267755        -0.088512        -0.247089
 C         1.734509        -1.512523        -0.751211
 C         3.218191        -1.050340        -1.057183
 C         3.562261        -0.128403         0.245598
 C         3.977670         1.000365        -0.719816
 C         2.978018         0.331427        -1.728460
 O         1.595602         0.740071        -1.336150
 O         2.284713         0.141789         0.792808
 H        -0.271045        -0.560043         1.128418
 H        -0.311163         1.168357         0.636936
 H        -0.883378         0.068003        -0.399886
 H         1.599328        -2.210567         0.119241
 H         1.063979        -1.737340        -1.603588
 H         3.801096        -1.819195        -1.598261
 H         4.144957        -0.636638         1.027129
 H         3.649132         2.004653        -0.358089
 H         5.093938         1.032519        -0.894376
 H         3.167566         0.486406        -2.765972
