19
Iteration:  2558
 C        -0.066746         0.167760         0.316916
 C         1.263754        -0.114134        -0.274223
 C         1.721478        -1.567986        -0.671916
 C         3.101429        -1.055879        -1.121234
 C         3.552899        -0.212183         0.196993
 C         3.979066         0.988237        -0.712174
 C         2.990392         0.425056        -1.746384
 O         1.599517         0.701759        -1.389117
 O         2.307431         0.206302         0.912573
 H        -0.381431        -0.371629         1.226408
 H        -0.003666         1.192247         0.673772
 H        -0.913224         0.270284        -0.433740
 H         1.859847        -2.422544         0.238950
 H         1.110149        -1.862335        -1.610879
 H         3.952808        -1.674550        -1.475921
 H         4.300074        -0.641992         0.968948
 H         3.629699         1.982223        -0.321828
 H         5.033109         0.953822        -1.087235
 H         3.000362         0.734311        -2.876803
