19
Iteration:  1715charge 0 multiplicity 1
 C        -0.154517         0.063065         0.296853
 C         1.280644        -0.116425        -0.175526
 C         1.684529        -1.521871        -0.731212
 C         3.035896        -1.015687        -1.126423
 C         3.609175        -0.255275         0.180681
 C         4.047841         0.925577        -0.739404
 C         2.943103         0.459877        -1.735780
 O         1.600759         0.799604        -1.290921
 O         2.371025         0.225548         0.850025
 H        -0.078714        -0.549546         1.241947
 H        -0.170022         1.120129         0.557153
 H        -0.830274        -0.259486        -0.437922
 H         1.819802        -2.330183         0.069219
 H         0.914046        -1.849460        -1.548430
 H         3.815780        -1.653877        -1.652160
 H         4.305002        -0.601325         0.947997
 H         3.692024         1.923658        -0.293153
 H         5.125394         0.935504        -1.088048
 H         3.104704         0.657443        -2.836907
