19
Iteration:  3455
 C        -0.169133         0.100638         0.305885
 C         1.313443        -0.118459        -0.254940
 C         1.726781        -1.450238        -0.801175
 C         3.072600        -1.072002        -1.065515
 C         3.594023        -0.204310         0.254507
 C         3.902798         0.955914        -0.704440
 C         3.019708         0.329554        -1.720927
 O         1.625482         0.753148        -1.352427
 O         2.353530         0.249919         0.884109
 H        -0.584196        -0.621514         1.050835
 H        -0.036501         1.073416         0.846774
 H        -0.754923        -0.030436        -0.548748
 H         1.685603        -2.301438        -0.039633
 H         1.183555        -1.883923        -1.746687
 H         4.088633        -1.635631        -1.261635
 H         4.451715        -0.370118         0.951072
 H         3.496238         1.979726        -0.492813
 H         4.885338         1.001713        -1.148140
 H         3.006096         0.509759        -2.742792
