19
Iteration:  4623charge 0 multiplicity 1
 C        -0.126777         0.141923         0.259104
 C         1.295250        -0.133008        -0.206867
 C         1.773270        -1.512453        -0.770556
 C         3.156514        -1.079685        -0.962211
 C         3.556017        -0.193570         0.218246
 C         3.990395         1.037980        -0.692429
 C         2.959382         0.397916        -1.771696
 O         1.585296         0.659217        -1.359593
 O         2.291977         0.232180         0.814492
 H        -0.444124        -0.694514         0.956625
 H        -0.075836         1.047308         0.897136
 H        -0.866917         0.467719        -0.592403
 H         1.562260        -2.147881         0.149906
 H         1.090308        -1.670810        -1.520305
 H         3.987692        -1.739594        -1.382204
 H         4.213295        -0.635038         1.014544
 H         3.740427         2.082492        -0.315901
 H         5.065514         0.820130        -0.955659
 H         3.049974         0.558145        -2.881995
