19
Iteration:   941charge 0 multiplicity 1
 C        -0.057384         0.127997         0.373461
 C         1.320954        -0.147907        -0.105783
 C         1.663057        -1.501266        -0.809525
 C         3.133736        -1.035249        -1.077540
 C         3.613061        -0.205046         0.104335
 C         4.043547         0.972668        -0.792374
 C         2.890617         0.452840        -1.761658
 O         1.578846         0.801063        -1.168234
 O         2.312622         0.089139         0.778982
 H        -0.228035        -0.757613         1.116103
 H        -0.220973         1.109028         0.880301
 H        -0.791602         0.055304        -0.459563
 H         1.379142        -2.272547        -0.086214
 H         1.134317        -1.605636        -1.804367
 H         3.794130        -1.670528        -1.696175
 H         4.252277        -0.508123         0.984116
 H         3.922553         2.025567        -0.430923
 H         5.008270         0.872290        -1.114759
 H         2.805070         0.800377        -2.792496
