19
Iteration:  1130
 C        -0.031653         0.189396         0.461322
 C         1.348868        -0.105610        -0.227209
 C         1.753587        -1.539777        -0.841703
 C         3.126342        -1.018391        -1.205867
 C         3.500221        -0.230942         0.193757
 C         3.889221         0.931521        -0.717963
 C         2.898630         0.417092        -1.787873
 O         1.646522         0.820148        -1.293453
 O         2.288671         0.113782         0.890711
 H        -0.016171        -0.668187         1.171588
 H        -0.012383         1.112714         1.056402
 H        -0.936694         0.066764        -0.171201
 H         1.982499        -2.408844        -0.175416
 H         1.054933        -1.799640        -1.644280
 H         3.914612        -1.688004        -1.601708
 H         4.209045        -0.450452         1.011500
 H         3.727168         1.976453        -0.436856
 H         4.942903         0.789236        -0.910642
 H         2.953357         0.671218        -2.816553
