19
Iteration:   513charge 0 multiplicity 1
 C         0.006832         0.192957         0.356990
 C         1.375599        -0.181563        -0.097600
 C         1.635133        -1.475394        -0.909396
 C         3.085648        -0.994536        -1.142443
 C         3.623627        -0.272939         0.180640
 C         3.951268         0.998904        -0.692218
 C         2.882397         0.444029        -1.702624
 O         1.521758         0.682542        -1.228534
 O         2.377800         0.162309         0.805440
 H        -0.413488        -0.551742         1.049155
 H         0.192199         1.074696         0.973544
 H        -0.620018         0.334649        -0.524260
 H         1.651606        -2.466177        -0.449074
 H         0.945256        -1.527938        -1.719219
 H         3.679379        -1.762450        -1.695535
 H         4.368852        -0.721788         0.802639
 H         3.772145         2.040574        -0.275798
 H         4.950959         1.072820        -1.003988
 H         2.960886         0.710274        -2.768230
