19
Iteration:  1446
 C        -0.105018         0.077488         0.478782
 C         1.340011        -0.026998        -0.276680
 C         1.736374        -1.420538        -0.733964
 C         3.128180        -1.043697        -1.111567
 C         3.538560        -0.268376         0.175089
 C         3.996636         0.960905        -0.747934
 C         2.959507         0.478700        -1.723808
 O         1.588577         0.796357        -1.339751
 O         2.270239         0.055812         0.827794
 H        -0.232382        -0.807529         1.061693
 H        -0.207641         1.042511         0.926590
 H        -0.852699         0.025672        -0.376127
 H         1.825119        -2.082388         0.102946
 H         1.182120        -1.703866        -1.612989
 H         3.848027        -1.705277        -1.662712
 H         4.150229        -0.690628         0.955894
 H         4.091830         2.008588        -0.463030
 H         4.926080         0.782041        -1.176810
 H         3.001699         0.669169        -2.748896
