19
Iteration:  4855charge 0 multiplicity 1
 C        -0.181498         0.200584         0.318014
 C         1.282828        -0.142081        -0.242549
 C         1.814595        -1.579411        -0.738555
 C         3.190117        -1.040363        -1.046095
 C         3.565856        -0.071882         0.283599
 C         4.071070         0.937050        -0.796649
 C         2.964736         0.312650        -1.778828
 O         1.606535         0.732142        -1.294292
 O         2.166291         0.223718         0.844789
 H        -0.523322        -0.685250         0.903783
 H        -0.061030         1.186123         0.894394
 H        -0.919861         0.400533        -0.469372
 H         1.828178        -2.345163        -0.029307
 H         1.335876        -1.800295        -1.571818
 H         3.796543        -1.800449        -1.595264
 H         4.237988        -0.482661         1.029232
 H         3.936659         1.918198        -0.329479
 H         5.063668         0.755731        -1.232181
 H         3.050652         0.425040        -2.858138
