19
Iteration:  1281charge 0 multiplicity 1
 C        -0.107038         0.211239         0.355812
 C         1.237626        -0.143753        -0.237556
 C         1.768451        -1.475554        -0.752513
 C         3.146630        -0.950161        -1.053096
 C         3.645765        -0.259879         0.119027
 C         3.971332         0.968827        -0.795835
 C         2.861241         0.426385        -1.729268
 O         1.632276         0.819988        -1.273826
 O         2.277298        -0.005385         0.886534
 H        -0.280076        -0.659326         1.011383
 H         0.141964         1.175126         0.840337
 H        -0.821518         0.412358        -0.353479
 H         1.782714        -2.144540         0.109214
 H         1.374027        -1.891890        -1.651138
 H         3.883698        -1.536699        -1.671122
 H         4.280881        -0.745327         0.855586
 H         3.592458         1.972081        -0.357397
 H         5.041115         0.844120        -1.162992
 H         2.768420         0.474933        -2.765390
