19
Iteration:  2305charge 0 multiplicity 1
 C        -0.083611         0.237422         0.240427
 C         1.371692        -0.182690        -0.204743
 C         1.703272        -1.639427        -0.695043
 C         3.069119        -1.040429        -1.080037
 C         3.514228        -0.198177         0.175343
 C         3.933338         1.049127        -0.717928
 C         2.968172         0.393129        -1.747855
 O         1.627874         0.810122        -1.296501
 O         2.323343         0.120643         0.861935
 H        -0.121769        -0.166851         1.211548
 H        -0.105366         1.284547         0.359731
 H        -0.866810        -0.217910        -0.365234
 H         1.670337        -2.444227         0.033790
 H         1.133910        -2.043369        -1.529108
 H         3.843863        -1.738018        -1.444574
 H         4.311891        -0.545875         0.831649
 H         3.683133         2.101888        -0.486109
 H         5.051588         1.133781        -0.892075
 H         3.071434         0.577481        -2.871996
