19
Iteration:  3582
 C        -0.130088         0.145542         0.307646
 C         1.325790        -0.192281        -0.260799
 C         1.718794        -1.603327        -0.774493
 C         3.107284        -1.079792        -1.036963
 C         3.584777        -0.068253         0.278652
 C         4.080795         1.007109        -0.725218
 C         2.998433         0.354457        -1.677207
 O         1.552326         0.770431        -1.332674
 O         2.255923         0.217102         0.785247
 H        -0.416617        -0.589089         1.123805
 H        -0.160483         1.156301         0.787766
 H        -0.941618         0.110754        -0.432688
 H         1.744737        -2.363458        -0.040085
 H         1.172302        -1.702955        -1.684855
 H         3.910022        -1.706521        -1.497802
 H         4.239451        -0.678782         0.888796
 H         3.861964         2.027221        -0.306355
 H         5.124033         0.784162        -1.101138
 H         2.910469         0.664071        -2.783911
