19
Iteration:  2872charge 0 multiplicity 1
 C        -0.084257         0.128219         0.275226
 C         1.378004        -0.122167        -0.161907
 C         1.623655        -1.469405        -0.707821
 C         3.136352        -1.002716        -1.068356
 C         3.562261        -0.144936         0.210164
 C         4.018773         1.007248        -0.739247
 C         2.919217         0.329215        -1.724822
 O         1.598438         0.732120        -1.318352
 O         2.307675         0.146113         0.829541
 H        -0.395725        -0.372774         1.190306
 H        -0.176577         1.172143         0.282338
 H        -0.517742        -0.317532        -0.608851
 H         1.603232        -2.445531        -0.152858
 H         1.060157        -1.690373        -1.673818
 H         3.809140        -1.636458        -1.460810
 H         4.172101        -0.554458         1.002200
 H         3.798928         1.993131        -0.285855
 H         5.017304         1.004860        -1.157236
 H         3.090342         0.353213        -2.774136
