19
Iteration:  3990charge 0 multiplicity 1
 C        -0.099159         0.157799         0.297009
 C         1.282871        -0.133486        -0.280633
 C         1.768266        -1.483641        -0.711163
 C         3.231518        -0.991170        -1.041340
 C         3.488788        -0.182806         0.199023
 C         3.917070         0.945336        -0.754553
 C         2.952649         0.390482        -1.799947
 O         1.615486         0.750590        -1.302366
 O         2.290843         0.118549         0.927943
 H        -0.454253        -0.724210         0.911248
 H        -0.118149         1.215678         0.589861
 H        -0.742539         0.238202        -0.622217
 H         1.670613        -2.141844         0.120504
 H         1.158419        -1.946158        -1.525940
 H         3.996099        -1.617489        -1.370424
 H         4.183109        -0.682499         0.861493
 H         3.899937         2.004743        -0.426024
 H         4.974223         0.683207        -1.167119
 H         3.033294         0.894351        -2.742398
