19
Iteration:  4017charge 0 multiplicity 1
 C        -0.092267         0.173771         0.348149
 C         1.313768        -0.152052        -0.245753
 C         1.750049        -1.542660        -0.748264
 C         3.158901        -0.991863        -1.024718
 C         3.588397        -0.119754         0.217322
 C         4.045673         1.014398        -0.696588
 C         2.910239         0.300393        -1.669950
 O         1.563853         0.756240        -1.342602
 O         2.251939         0.118559         0.743972
 H        -0.561375        -0.644678         0.856929
 H        -0.016809         1.186614         0.799514
 H        -0.560458         0.334017        -0.650186
 H         1.620373        -2.330472         0.067697
 H         1.047489        -1.918939        -1.491640
 H         3.901985        -1.649500        -1.621661
 H         4.127032        -0.557793         1.090082
 H         3.856228         2.014817        -0.308884
 H         5.009238         0.960115        -1.084796
 H         3.032216         0.681613        -2.707955
