19
Iteration:  4999
 C        -0.078118         0.192839         0.183825
 C         1.358463        -0.076860        -0.191325
 C         1.767187        -1.501901        -0.638115
 C         3.153125        -1.068662        -0.978278
 C         3.538813        -0.154275         0.202713
 C         3.911501         0.976616        -0.727577
 C         2.906668         0.363778        -1.749139
 O         1.587736         0.725931        -1.399809
 O         2.327517         0.137690         0.874073
 H        -0.290320        -0.712636         0.827603
 H        -0.423031         1.181851         0.602556
 H        -0.582781         0.159261        -0.854148
 H         1.716543        -2.149496         0.178884
 H         1.189474        -1.797842        -1.445471
 H         3.932556        -1.776752        -1.368241
 H         4.099844        -0.678773         1.029928
 H         3.628308         2.008639        -0.438148
 H         4.969799         0.951074        -1.000853
 H         3.032381         0.480430        -2.809521
