19
Iteration:  1026
 C         0.006074         0.164857         0.420658
 C         1.364674        -0.092453        -0.116111
 C         1.746851        -1.409606        -0.822791
 C         3.129529        -0.991060        -1.078868
 C         3.602778        -0.206302         0.158740
 C         3.989008         0.949615        -0.697244
 C         2.809903         0.395546        -1.793195
 O         1.501415         0.769411        -1.380845
 O         2.311578         0.011076         0.888782
 H        -0.175237        -0.436814         1.257392
 H        -0.137049         1.193284         0.625929
 H        -0.858453        -0.153304        -0.245180
 H         1.559015        -2.333547        -0.295072
 H         1.322767        -1.353575        -1.858976
 H         3.946014        -1.616976        -1.486993
 H         4.265846        -0.625021         0.923822
 H         3.884473         2.043261        -0.218264
 H         5.031244         0.699302        -1.238276
 H         2.970874         0.626647        -2.907932
