19
Iteration:  2453charge 0 multiplicity 1
 C        -0.057193         0.202915         0.342897
 C         1.322455        -0.115084        -0.185482
 C         1.750023        -1.489597        -0.683457
 C         3.130631        -1.055818        -1.081907
 C         3.561348        -0.177922         0.191875
 C         3.941422         0.962626        -0.707857
 C         2.983362         0.396431        -1.724468
 O         1.598455         0.741097        -1.409243
 O         2.262160         0.099632         0.806787
 H        -0.243850        -0.525798         1.191352
 H        -0.102704         1.340966         0.541217
 H        -0.925868        -0.056127        -0.308750
 H         1.647528        -2.159539         0.151635
 H         1.097360        -1.829349        -1.514691
 H         3.853446        -1.670751        -1.587533
 H         4.130574        -0.526045         1.064168
 H         3.744653         2.020410        -0.429170
 H         4.990190         0.954543        -0.970171
 H         3.062066         0.575930        -2.787458
