19
Iteration:  3975
 C        -0.086481         0.110900         0.218802
 C         1.362456        -0.092165        -0.141328
 C         1.723793        -1.454320        -0.742220
 C         3.059416        -1.024554        -1.114813
 C         3.569758        -0.131752         0.254632
 C         3.995445         0.999568        -0.719498
 C         2.956594         0.371795        -1.719734
 O         1.613272         0.737280        -1.323102
 O         2.269726         0.105940         0.842394
 H        -0.301269        -0.530020         1.046999
 H        -0.115421         1.087677         0.688269
 H        -0.730459        -0.093416        -0.643215
 H         1.795289        -2.342746         0.036887
 H         1.023644        -1.720090        -1.614627
 H         3.801973        -1.766689        -1.558110
 H         4.275450        -0.443065         1.061742
 H         3.705450         2.023785        -0.433572
 H         5.055107         0.966233        -0.950494
 H         2.996857         0.236681        -2.836434
