19
Iteration:  1272
 C        -0.090396         0.220605         0.380373
 C         1.263371        -0.147673        -0.239649
 C         1.730790        -1.447019        -0.767811
 C         3.126540        -0.953355        -1.100016
 C         3.635199        -0.216613         0.206398
 C         4.004918         0.972031        -0.749540
 C         2.898120         0.434361        -1.756290
 O         1.557094         0.737528        -1.282889
 O         2.313431        -0.005661         0.855548
 H        -0.438666        -0.464626         1.069449
 H         0.025694         1.080935         0.954098
 H        -0.769547         0.244745        -0.393215
 H         1.657741        -2.272400        -0.029758
 H         1.185470        -1.775093        -1.667987
 H         3.736080        -1.699446        -1.689189
 H         4.425415        -0.618415         0.827809
 H         3.929683         2.068503        -0.505870
 H         5.105395         0.996320        -1.065218
 H         2.995590         0.637948        -2.806527
