19
Iteration:  2255
 C        -0.079401         0.106411         0.369099
 C         1.323631        -0.124582        -0.252055
 C         1.677954        -1.523612        -0.761549
 C         3.091532        -1.003672        -1.026828
 C         3.460130        -0.161620         0.180375
 C         4.051911         0.937972        -0.760136
 C         2.975044         0.395598        -1.763670
 O         1.657483         0.758699        -1.309246
 O         2.267462         0.206831         0.843460
 H        -0.241404        -0.598077         1.220195
 H        -0.143137         1.145909         0.734724
 H        -0.700779        -0.159416        -0.564686
 H         1.629947        -2.250064         0.062438
 H         1.073394        -2.010735        -1.530843
 H         3.886254        -1.711875        -1.327350
 H         4.194626        -0.635343         0.839134
 H         3.976716         1.902419        -0.317493
 H         5.035863         0.951841        -1.175287
 H         3.084718         0.665124        -2.777250
