19
Iteration:  4167
 C        -0.105248         0.173646         0.333011
 C         1.330317        -0.083100        -0.242118
 C         1.711834        -1.506391        -0.784956
 C         3.176763        -1.054429        -1.008230
 C         3.590495        -0.115311         0.254693
 C         3.988555         0.968883        -0.732093
 C         2.933912         0.385166        -1.731077
 O         1.583265         0.691999        -1.408206
 O         2.248847         0.139226         0.897177
 H        -0.252091        -0.407053         1.286829
 H        -0.093736         1.289379         0.643234
 H        -0.907790        -0.112834        -0.451605
 H         1.715181        -2.426618        -0.149571
 H         1.162862        -1.796532        -1.859083
 H         4.108901        -1.657100        -1.367547
 H         4.152948        -0.660315         1.010965
 H         3.927898         2.077402        -0.426125
 H         4.974630         0.716411        -1.287912
 H         2.981616         0.717178        -2.756628
