19
Iteration:    91
 C        -0.006120         0.205202         0.433108
 C         1.321947        -0.089658        -0.241236
 C         1.709324        -1.555272        -0.708241
 C         3.090817        -1.015443        -1.194805
 C         3.545102        -0.228166         0.105695
 C         3.953311         1.034396        -0.712334
 C         2.956954         0.449673        -1.794327
 O         1.600647         0.826657        -1.222389
 O         2.268399        -0.053494         0.798252
 H        -0.171755        -0.547837         1.313423
 H         0.090317         1.227282         0.827094
 H        -0.821895         0.114188        -0.280617
 H         1.843802        -2.148791         0.271238
 H         1.177209        -1.980594        -1.569649
 H         3.791678        -1.640506        -1.800256
 H         4.265773        -0.554420         0.904559
 H         3.712374         2.049508        -0.240358
 H         4.970090         1.101818        -0.956111
 H         2.985433         0.656422        -2.806511
