19
Iteration:   815charge 0 multiplicity 1
 C        -0.062936         0.069105         0.448680
 C         1.314426        -0.023559        -0.182170
 C         1.697031        -1.419174        -0.837937
 C         3.115947        -1.036675        -1.132487
 C         3.620143        -0.272534         0.119752
 C         3.950764         0.956814        -0.711930
 C         2.908894         0.387103        -1.674976
 O         1.554690         0.833350        -1.221554
 O         2.373394         0.118861         0.760813
 H        -0.259623        -0.531565         1.348521
 H        -0.357894         1.142855         0.624769
 H        -0.661142        -0.417171        -0.309215
 H         1.575642        -2.295924        -0.138605
 H         1.229436        -1.664681        -1.805897
 H         3.855620        -1.705321        -1.579825
 H         4.213755        -0.823800         0.837817
 H         3.808067         1.948673        -0.397077
 H         5.015217         0.804729        -1.200201
 H         2.809343         0.641274        -2.817469
