19
Iteration:  3187charge 0 multiplicity 1
 C        -0.084437         0.130351         0.243139
 C         1.297830        -0.055771        -0.159843
 C         1.683391        -1.517202        -0.667492
 C         3.189580        -1.066573        -0.990130
 C         3.554310        -0.142217         0.153241
 C         3.974638         0.978649        -0.736765
 C         2.944939         0.352610        -1.796912
 O         1.597117         0.788170        -1.338578
 O         2.270656         0.116319         0.833858
 H        -0.297831        -0.722493         0.961948
 H        -0.273918         1.158910         0.818788
 H        -0.867430         0.080844        -0.529489
 H         1.660730        -2.343161         0.085097
 H         1.223660        -1.891714        -1.616101
 H         4.210822        -1.673797        -1.086342
 H         4.302398        -0.705081         0.865278
 H         3.861414         2.037208        -0.449828
 H         4.994881         0.885637        -1.095257
 H         3.180599         0.806576        -2.887484
