19
Iteration:  3740
 C        -0.111094         0.172662         0.262117
 C         1.275419        -0.189393        -0.119999
 C         1.690559        -1.512911        -0.757594
 C         3.211522        -1.003424        -1.089450
 C         3.567153        -0.171528         0.235878
 C         4.067011         1.039253        -0.690104
 C         2.943259         0.429903        -1.802342
 O         1.591494         0.683870        -1.369706
 O         2.252950         0.136007         0.866902
 H        -0.494126        -0.076270         1.273652
 H        -0.138522         1.264414         0.499009
 H        -0.911543        -0.393464        -0.389293
 H         1.495232        -2.369916        -0.014751
 H         1.273963        -1.703433        -1.815499
 H         3.954506        -1.803237        -1.145835
 H         4.344785        -0.532449         0.980956
 H         3.908177         2.012106        -0.274049
 H         5.022192         0.848742        -1.137150
 H         2.915044         0.720059        -2.860621
