19
Iteration:  3051
 C        -0.118292         0.129306         0.327316
 C         1.300458        -0.118519        -0.223038
 C         1.733469        -1.472959        -0.641919
 C         3.147889        -1.032418        -1.047609
 C         3.495316        -0.226096         0.169123
 C         3.943499         0.962503        -0.766720
 C         2.999527         0.406609        -1.786651
 O         1.650959         0.793974        -1.341794
 O         2.254709         0.149544         0.843999
 H        -0.292857        -0.712155         0.992136
 H        -0.014292         1.103209         0.811392
 H        -0.823108         0.129481        -0.538239
 H         1.822124        -2.290258         0.091586
 H         1.196660        -1.756396        -1.549487
 H         4.090896        -1.667837        -1.274930
 H         4.148908        -0.569105         1.042303
 H         3.815774         1.972508        -0.369055
 H         4.992694         0.808119        -1.104099
 H         3.152712         0.370270        -2.969320
