19
Iteration:   479charge 0 multiplicity 1
 C        -0.057321         0.178872         0.498884
 C         1.331587        -0.087955        -0.213582
 C         1.709737        -1.513837        -0.794179
 C         3.100075        -0.978687        -1.166669
 C         3.562171        -0.224787         0.181107
 C         3.953761         1.057182        -0.786974
 C         2.968642         0.432475        -1.786200
 O         1.651599         0.841697        -1.295502
 O         2.248953        -0.068691         0.850085
 H        -0.119413        -0.758751         1.161787
 H        -0.186042         1.074691         1.105815
 H        -0.976129         0.177948        -0.002001
 H         2.007784        -2.129220         0.049402
 H         1.086794        -1.896265        -1.608813
 H         3.747491        -1.768017        -1.640991
 H         4.203100        -0.693513         0.859549
 H         3.621482         2.100862        -0.559839
 H         4.976282         0.811253        -1.065449
 H         3.013557         0.615436        -2.829436
