19
Iteration:   409
 C        -0.050690         0.075433         0.390482
 C         1.326920        -0.101672        -0.139639
 C         1.640028        -1.519733        -0.738858
 C         3.029464        -1.007609        -1.228363
 C         3.547949        -0.230807         0.139948
 C         3.980216         1.010964        -0.734924
 C         2.941482         0.479742        -1.808451
 O         1.658502         0.839305        -1.235355
 O         2.356941         0.049833         0.870534
 H        -0.089352        -0.471231         1.274752
 H        -0.419268         1.088749         0.494658
 H        -0.850732        -0.301339        -0.299207
 H         1.840825        -2.296866         0.014254
 H         1.001127        -1.664438        -1.610253
 H         3.715521        -1.800197        -1.480363
 H         4.375960        -0.695319         0.740499
 H         3.732675         1.966191        -0.269968
 H         5.016542         0.959401        -1.226630
 H         3.054411         0.776250        -2.825132
