19
Iteration:   262charge 0 multiplicity 1
 C        -0.026021         0.103345         0.410233
 C         1.283611        -0.114770        -0.210359
 C         1.650028        -1.435757        -0.731692
 C         3.101565        -1.019854        -1.131347
 C         3.627577        -0.280493         0.117830
 C         3.969460         0.977795        -0.696913
 C         2.919199         0.411011        -1.744696
 O         1.569128         0.880677        -1.241091
 O         2.387880         0.038812         0.749999
 H        -0.138280        -0.480549         1.359589
 H        -0.048865         1.117268         0.757955
 H        -0.795535        -0.144085        -0.259248
 H         1.546984        -2.137689         0.062632
 H         1.110685        -1.826486        -1.573998
 H         3.731353        -1.690747        -1.776636
 H         4.213906        -0.770890         0.886583
 H         3.399902         1.876674        -0.386822
 H         4.980538         1.165437        -0.970048
 H         2.993232         0.745533        -2.866224
