19
Iteration:   756
 C        -0.049909         0.132759         0.418856
 C         1.298697        -0.139053        -0.128992
 C         1.703929        -1.485400        -0.807388
 C         3.110436        -1.052277        -1.148241
 C         3.647733        -0.242153         0.122075
 C         3.898296         0.994793        -0.756056
 C         2.899295         0.426020        -1.759576
 O         1.630204         0.924380        -1.284671
 O         2.319747        -0.018089         0.874645
 H        -0.149909        -0.407313         1.381553
 H        -0.030869         1.198820         0.577335
 H        -0.845586         0.105657        -0.340033
 H         1.677849        -2.229468        -0.028221
 H         1.201342        -1.786520        -1.738282
 H         3.772456        -1.776854        -1.625579
 H         4.400284        -0.618404         0.867962
 H         3.435734         2.037229        -0.398146
 H         5.001839         1.009588        -1.031460
 H         2.844693         0.609700        -2.855684
