19
Iteration:  2499
 C        -0.132330         0.146505         0.341181
 C         1.313996        -0.072349        -0.107108
 C         1.738054        -1.445015        -0.765180
 C         3.145969        -1.001910        -1.081669
 C         3.514207        -0.193677         0.179418
 C         3.962922         0.937095        -0.743382
 C         2.972460         0.346465        -1.761136
 O         1.648728         0.686352        -1.287177
 O         2.297648         0.207329         0.813284
 H        -0.343773        -0.376379         1.294043
 H        -0.382786         1.250363         0.154968
 H        -0.661291        -0.424563        -0.402700
 H         1.683141        -2.393200        -0.293892
 H         1.105984        -1.522326        -1.697795
 H         3.940554        -1.742327        -1.293223
 H         4.098558        -0.609128         0.972056
 H         3.979368         1.956945        -0.437747
 H         4.968934         0.702624        -1.074001
 H         2.894835         0.518417        -2.845639
