19
Iteration:  1439
 C        -0.123957         0.107701         0.425718
 C         1.262799        -0.099162        -0.165436
 C         1.796693        -1.394304        -0.734390
 C         3.143672        -1.028987        -1.199316
 C         3.509756        -0.263705         0.128856
 C         3.967020         0.988068        -0.691448
 C         3.010017         0.444008        -1.758783
 O         1.609220         0.778095        -1.324485
 O         2.288487         0.074845         0.847907
 H        -0.335220        -0.661133         1.178703
 H        -0.142238         1.084491         0.901550
 H        -0.926536         0.013734        -0.272927
 H         1.716641        -2.060491         0.162671
 H         1.102814        -1.865250        -1.518626
 H         3.753369        -1.647631        -1.815186
 H         4.100332        -0.687409         0.977029
 H         4.135256         2.074414        -0.471766
 H         5.059093         0.632879        -1.154915
 H         2.988141         0.688545        -2.889545
