19
Iteration:  3160charge 0 multiplicity 1
 C        -0.101216         0.119503         0.266110
 C         1.268945        -0.092740        -0.202358
 C         1.692505        -1.492633        -0.789685
 C         3.150256        -1.050550        -1.151540
 C         3.580457        -0.115386         0.320379
 C         4.002785         0.945325        -0.748494
 C         2.957394         0.309952        -1.653810
 O         1.584976         0.708746        -1.303275
 O         2.294989         0.241305         0.845413
 H        -0.112624        -0.426980         1.178708
 H        -0.272013         1.097703         0.458056
 H        -1.008114        -0.215715        -0.241993
 H         1.844986        -2.394691        -0.217550
 H         1.186115        -1.774095        -1.718861
 H         3.956010        -1.565363        -1.540442
 H         4.220535        -0.527557         1.132003
 H         3.917067         2.036850        -0.845687
 H         5.026996         0.680346        -1.131192
 H         3.151559         0.671007        -2.694979
