19
Iteration:  1584charge 0 multiplicity 1
 C        -0.029393         0.067893         0.361544
 C         1.257302        -0.061504        -0.281672
 C         1.727959        -1.515446        -0.778481
 C         3.109788        -1.068660        -1.057342
 C         3.487099        -0.181401         0.181909
 C         4.031002         0.919305        -0.736214
 C         2.876888         0.400629        -1.766604
 O         1.643516         0.914222        -1.234671
 O         2.295002         0.121526         0.809019
 H        -0.067173        -0.682207         1.153138
 H        -0.236354         1.002006         0.821764
 H        -0.901001        -0.146846        -0.045898
 H         1.562804        -2.209856         0.075904
 H         1.281335        -1.972732        -1.665367
 H         3.943872        -1.731199        -1.400198
 H         4.234721        -0.699662         0.762635
 H         4.035774         2.002858        -0.447079
 H         5.068467         0.909050        -1.172133
 H         3.136836         0.496396        -2.816311
