19
Iteration:  1318
 C        -0.078432         0.086301         0.318492
 C         1.354276        -0.123070        -0.139811
 C         1.640944        -1.407619        -0.772346
 C         3.064356        -0.979227        -1.129384
 C         3.596484        -0.183030         0.139435
 C         4.010118         0.988436        -0.757000
 C         2.925234         0.419227        -1.715494
 O         1.609878         0.696696        -1.287523
 O         2.332645         0.111685         0.887435
 H        -0.419494        -0.602295         1.025074
 H        -0.090099         0.978483         0.872538
 H        -0.819324         0.085593        -0.515898
 H         1.552594        -2.292125        -0.116524
 H         1.007135        -1.581460        -1.690373
 H         3.748728        -1.679291        -1.591912
 H         4.292825        -0.623860         0.868639
 H         3.996746         1.891387        -0.167748
 H         5.028697         0.949447        -1.249301
 H         3.074270         0.588743        -2.821087
