19
Iteration:  4523
 C        -0.167550         0.162110         0.255219
 C         1.258326        -0.111800        -0.166692
 C         1.757715        -1.508317        -0.723257
 C         3.166879        -0.976721        -1.088261
 C         3.594406        -0.151268         0.222795
 C         4.031527         0.972561        -0.717211
 C         2.933057         0.389470        -1.692051
 O         1.637293         0.698174        -1.365635
 O         2.243806         0.136303         0.827262
 H        -0.387337        -0.076899         1.333936
 H        -0.221503         1.307831         0.127191
 H        -0.994966        -0.347440        -0.321066
 H         1.884043        -2.238108         0.071640
 H         1.312272        -1.910342        -1.532481
 H         3.848006        -1.643569        -1.569061
 H         4.197861        -0.348517         1.128740
 H         3.993540         2.010995        -0.272029
 H         4.990456         0.524426        -1.085754
 H         2.993308         0.319711        -2.820160
