19
Iteration:   429charge 0 multiplicity 1
 C        -0.134595         0.038492         0.362356
 C         1.317668        -0.020892        -0.173597
 C         1.647053        -1.345346        -0.799251
 C         3.162266        -1.028115        -1.051425
 C         3.691487        -0.295833         0.123918
 C         4.020416         0.937633        -0.748341
 C         2.845999         0.430199        -1.641031
 O         1.469685         0.824865        -1.301751
 O         2.477209         0.036526         0.845607
 H        -0.356499        -0.466811         1.233381
 H        -0.527358         1.063767         0.426259
 H        -0.893609        -0.304747        -0.433896
 H         1.554928        -2.142249        -0.062658
 H         1.173388        -1.392902        -1.769652
 H         3.694697        -1.456644        -1.877715
 H         4.551903        -0.683322         0.801469
 H         3.741915         1.879000        -0.234135
 H         4.949862         0.872286        -1.326214
 H         2.968815         0.516244        -2.787704
