19
Iteration:  4416
 C        -0.162583         0.188231         0.256739
 C         1.269166        -0.121811        -0.229387
 C         1.808033        -1.515308        -0.684766
 C         3.170866        -1.024847        -0.965484
 C         3.617551        -0.162515         0.197242
 C         3.968413         0.953983        -0.749494
 C         2.920764         0.397556        -1.748028
 O         1.617288         0.764658        -1.355199
 O         2.271951         0.124146         0.846847
 H        -0.572193        -0.593981         0.845440
 H        -0.275043         1.114674         0.804112
 H        -0.740591         0.358010        -0.640282
 H         1.498450        -2.216732         0.228459
 H         1.337176        -2.013870        -1.591960
 H         3.820758        -1.777249        -1.360531
 H         4.252652        -0.729811         0.854054
 H         3.963810         1.995980        -0.461095
 H         4.949037         0.908524        -1.130443
 H         3.039684         0.414043        -2.799836
