19
Iteration:  4949
 C        -0.049436         0.164653         0.343434
 C         1.266747        -0.080267        -0.299584
 C         1.803410        -1.482278        -0.735718
 C         3.205101        -0.984873        -0.959712
 C         3.511466        -0.140748         0.266200
 C         3.961742         0.912013        -0.745641
 C         2.983351         0.322261        -1.741765
 O         1.569845         0.772190        -1.356992
 O         2.183475         0.137123         0.815966
 H        -0.068531        -0.142116         1.362381
 H        -0.101075         1.188801         0.078773
 H        -0.800342        -0.357105        -0.227086
 H         1.908198        -2.294902         0.094938
 H         1.322315        -1.924138        -1.769087
 H         3.951321        -1.596396        -1.382966
 H         3.987543        -0.514868         1.156931
 H         4.184833         1.951896        -0.577711
 H         4.871190         0.443360        -1.211194
 H         3.101315         0.433467        -2.858891
