19
Iteration:  4763charge 0 multiplicity 1
 C        -0.088549         0.176185         0.222858
 C         1.287821        -0.152305        -0.189583
 C         1.733438        -1.576163        -0.790325
 C         3.110426        -1.041673        -1.004753
 C         3.573350        -0.069533         0.293362
 C         4.012276         1.031578        -0.820451
 C         2.939352         0.365547        -1.692441
 O         1.590370         0.710667        -1.362047
 O         2.313869         0.130253         0.926819
 H        -0.462657        -0.240154         1.174590
 H        -0.322729         1.224265         0.167573
 H        -0.871812        -0.185078        -0.513609
 H         1.531246        -2.314677         0.020502
 H         1.067228        -1.646530        -1.631942
 H         4.023246        -1.571248        -1.367279
 H         4.259174        -0.376203         1.119262
 H         4.072027         2.092281        -0.448871
 H         4.870333         0.633445        -1.370924
 H         3.156715         0.384943        -2.869117
