19
Iteration:   740charge 0 multiplicity 1
 C         0.002490         0.192790         0.363632
 C         1.374101        -0.089477        -0.240058
 C         1.679773        -1.486297        -0.844934
 C         3.120350        -1.055964        -1.030882
 C         3.608254        -0.249409         0.158709
 C         3.931021         0.988112        -0.750870
 C         2.851400         0.446404        -1.706086
 O         1.473229         0.843217        -1.222134
 O         2.431823         0.025216         0.831730
 H        -0.317808        -0.595320         1.067608
 H        -0.070515         1.170992         0.895801
 H        -0.672076        -0.123047        -0.446782
 H         1.407670        -2.425585        -0.287650
 H         1.140126        -1.553409        -1.802347
 H         3.905521        -1.606632        -1.583021
 H         4.290999        -0.730154         0.845713
 H         3.789505         1.808898        -0.167977
 H         4.823563         0.998501        -1.330760
 H         3.021528         0.470867        -2.797864
