19
Iteration:  2021
 C        -0.040433         0.152711         0.373298
 C         1.324086        -0.060323        -0.176982
 C         1.767855        -1.494336        -0.777659
 C         3.094760        -1.013879        -1.178103
 C         3.463192        -0.187462         0.240610
 C         3.942478         0.957280        -0.664456
 C         2.993243         0.382909        -1.776815
 O         1.619019         0.746503        -1.374261
 O         2.274784         0.130232         0.837442
 H        -0.319181        -0.677785         1.139925
 H        -0.215041         1.058921         1.101630
 H        -0.957746         0.158828        -0.245590
 H         1.841040        -2.197385         0.022707
 H         1.066338        -1.955470        -1.422764
 H         3.848574        -1.572484        -1.685314
 H         4.237547        -0.546453         0.927578
 H         3.982897         2.048784        -0.481012
 H         4.918478         0.610974        -0.859550
 H         3.358799         0.465724        -2.857755
