19
Iteration:  1947charge 0 multiplicity 1
 C        -0.053238         0.164931         0.331931
 C         1.237335        -0.110836        -0.213563
 C         1.741441        -1.466100        -0.708041
 C         3.158837        -0.991119        -1.107523
 C         3.500826        -0.167459         0.168610
 C         3.962393         1.045614        -0.784526
 C         2.970094         0.307851        -1.786026
 O         1.679076         0.820854        -1.227460
 O         2.248818        -0.001403         0.831883
 H        -0.223027        -0.302246         1.289207
 H        -0.166537         1.252478         0.512852
 H        -0.863854        -0.088742        -0.358658
 H         1.823764        -2.284724         0.091708
 H         1.013523        -1.879706        -1.507298
 H         3.838185        -1.718532        -1.465889
 H         4.222956        -0.564227         0.890165
 H         3.817838         2.100687        -0.505683
 H         5.059623         0.898169        -1.020539
 H         3.025672         0.341861        -2.871323
