19
Iteration:   845charge 0 multiplicity 1
 C        -0.019723         0.096794         0.415868
 C         1.355516        -0.125913        -0.122637
 C         1.646045        -1.468391        -0.723404
 C         3.065961        -0.948661        -1.227130
 C         3.561068        -0.151916         0.142971
 C         3.935478         0.985123        -0.780058
 C         2.912637         0.442349        -1.761756
 O         1.666067         0.830727        -1.284429
 O         2.290729        -0.037656         0.888805
 H        -0.349872        -0.601313         1.268194
 H        -0.213992         1.152670         0.630774
 H        -0.708900         0.072113        -0.382487
 H         1.846549        -2.224188         0.013248
 H         1.133621        -1.830415        -1.619583
 H         3.785315        -1.669252        -1.629930
 H         4.266830        -0.734034         0.765877
 H         4.025042         2.099078        -0.647945
 H         5.040690         0.724361        -1.065977
 H         2.987514         0.630587        -2.789177
