19
Iteration:  3696
 C        -0.060077         0.061290         0.329991
 C         1.281331        -0.087676        -0.258680
 C         1.749646        -1.495309        -0.713097
 C         3.109938        -1.119206        -0.958246
 C         3.569248        -0.181932         0.167327
 C         4.007521         1.026609        -0.742109
 C         3.007127         0.474093        -1.800438
 O         1.615316         0.774594        -1.320187
 O         2.194144         0.152658         0.800777
 H        -0.088226        -0.395055         1.316532
 H        -0.242385         1.165562         0.403456
 H        -0.787038        -0.459555        -0.411904
 H         1.716916        -2.077162         0.249298
 H         1.074727        -1.738396        -1.583420
 H         3.789895        -1.824894        -1.377851
 H         4.222204        -0.740695         0.879962
 H         3.717550         1.905727        -0.223722
 H         5.046918         0.911563        -0.870847
 H         3.225345         0.548110        -2.837537
