19
Iteration:  4877charge 0 multiplicity 1
 C        -0.087432         0.189044         0.241126
 C         1.323214        -0.138332        -0.188317
 C         1.687437        -1.513779        -0.676979
 C         3.108274        -1.021257        -1.006135
 C         3.511801        -0.121352         0.213353
 C         3.953598         1.024629        -0.790004
 C         2.990382         0.344895        -1.728653
 O         1.635064         0.743782        -1.359722
 O         2.292017         0.087863         0.877274
 H        -0.393664        -0.668971         0.869621
 H        -0.234477         1.295208         0.533808
 H        -0.635170        -0.038458        -0.678714
 H         1.568275        -2.039761         0.208507
 H         1.206490        -1.840756        -1.478500
 H         3.972691        -1.714565        -1.228858
 H         4.379705        -0.496491         0.789622
 H         3.910933         2.129513        -0.711168
 H         4.972236         0.672538        -1.017289
 H         3.176470         0.490001        -2.802190
