19
Iteration:  3717charge 0 multiplicity 1
 C        -0.055760         0.127777         0.277193
 C         1.291662        -0.106899        -0.243162
 C         1.766540        -1.525897        -0.727579
 C         3.127029        -1.020640        -1.088795
 C         3.531581        -0.182469         0.271533
 C         3.919635         0.958657        -0.712834
 C         2.940214         0.376609        -1.648984
 O         1.622141         0.822367        -1.382368
 O         2.308196         0.139247         0.795621
 H        -0.137883        -0.258970         1.303912
 H        -0.374892         1.181428         0.482422
 H        -0.773696        -0.590531        -0.292168
 H         1.597170        -2.204826         0.102150
 H         1.166297        -1.776343        -1.642703
 H         3.940806        -1.589059        -1.503850
 H         4.332766        -0.448219         0.960649
 H         3.613510         1.920048        -0.329098
 H         4.941666         0.859360        -1.002113
 H         3.165373         0.261360        -2.689256
