19
Iteration:  3425charge 0 multiplicity 1
 C        -0.137445         0.101081         0.259973
 C         1.304777        -0.097136        -0.223919
 C         1.697610        -1.455147        -0.664882
 C         3.153509        -1.004603        -1.053584
 C         3.555600        -0.133973         0.227557
 C         4.032225         0.978106        -0.780793
 C         2.948019         0.366082        -1.697645
 O         1.580963         0.753468        -1.303447
 O         2.276796         0.091454         0.806910
 H        -0.531973        -0.775465         0.732898
 H         0.016854         1.051512         0.809076
 H        -0.585242         0.239667        -0.735650
 H         1.756770        -2.181159         0.195937
 H         1.209119        -2.037191        -1.473172
 H         3.964343        -1.729008        -1.394121
 H         4.248663        -0.278515         1.083764
 H         3.964747         2.102557        -0.547458
 H         5.108003         0.737237        -1.142707
 H         3.073963         0.560328        -2.847673
