19
Iteration:  3429charge 0 multiplicity 1
 C        -0.088003         0.114814         0.259345
 C         1.355027        -0.098364        -0.197380
 C         1.734136        -1.445122        -0.672976
 C         3.116128        -1.050453        -1.044146
 C         3.566899        -0.133950         0.218923
 C         4.041709         0.991447        -0.744897
 C         2.943696         0.370755        -1.701031
 O         1.577200         0.733522        -1.318568
 O         2.246781         0.106245         0.799471
 H        -0.553758        -0.788671         0.712539
 H        -0.210448         1.011890         0.901274
 H        -0.548851         0.123806        -0.806568
 H         1.549493        -2.131108         0.129560
 H         1.144508        -1.762050        -1.503348
 H         3.942925        -1.554241        -1.393824
 H         4.290314        -0.413030         0.985475
 H         3.844443         2.042625        -0.692831
 H         5.063647         0.789693        -1.059086
 H         2.865253         0.515845        -2.843461
