19
Iteration:   297
 C        -0.105187         0.090660         0.406974
 C         1.321821        -0.155366        -0.115710
 C         1.649724        -1.435149        -0.851223
 C         3.087525        -0.922179        -1.114086
 C         3.555933        -0.147615         0.176462
 C         4.113787         0.896809        -0.878292
 C         2.950727         0.458267        -1.744094
 O         1.517477         0.754671        -1.217739
 O         2.355832         0.058246         0.905883
 H        -0.367639        -0.741743         1.031011
 H        -0.122945         1.037680         0.904294
 H        -0.786865         0.167955        -0.369869
 H         1.493945        -2.321240        -0.267256
 H         1.238610        -1.468087        -1.808819
 H         3.859503        -1.594917        -1.552347
 H         4.313581        -0.621240         0.875206
 H         4.183083         2.069962        -0.822092
 H         5.093797         0.544376        -1.185845
 H         2.834600         0.755664        -2.830456
