19
Iteration:  3833charge 0 multiplicity 1
 C        -0.121274         0.126111         0.339292
 C         1.252863        -0.167434        -0.247908
 C         1.831459        -1.593504        -0.737100
 C         3.133262        -1.021711        -1.009841
 C         3.596686        -0.160773         0.207661
 C         3.959670         0.930220        -0.732445
 C         2.966259         0.443602        -1.745618
 O         1.571230         0.849121        -1.360512
 O         2.270591         0.191185         0.830253
 H        -0.547007        -0.598225         0.958999
 H        -0.206871         1.027963         0.949672
 H        -0.752245         0.111736        -0.503735
 H         1.602003        -2.405763         0.003883
 H         1.490131        -1.918444        -1.736503
 H         3.914798        -1.806990        -1.215609
 H         4.126284        -0.625315         1.013410
 H         4.017936         2.003252        -0.391150
 H         4.978588         0.602645        -1.088416
 H         3.084478         0.555893        -2.861773
