19
Iteration:   445
 C        -0.071116         0.110881         0.337232
 C         1.329386        -0.100663        -0.148879
 C         1.729691        -1.487927        -0.833988
 C         3.072440        -0.986103        -1.142947
 C         3.680343        -0.281100         0.188956
 C         3.987323         0.925518        -0.770105
 C         2.832288         0.458501        -1.662899
 O         1.529707         0.835065        -1.212067
 O         2.373749         0.128471         0.813243
 H        -0.147690        -0.573701         1.259759
 H        -0.278893         1.129023         0.658091
 H        -0.626495        -0.326867        -0.438246
 H         1.529334        -2.441499        -0.321395
 H         1.084259        -1.642715        -1.743517
 H         3.813300        -1.667167        -1.579855
 H         4.211655        -0.731737         0.968906
 H         4.075912         1.919360        -0.348195
 H         4.918131         0.829048        -1.461512
 H         2.848145         0.687404        -2.680480
