19
Iteration:  2855
 C        -0.080359         0.203926         0.252189
 C         1.315437        -0.098536        -0.200307
 C         1.765219        -1.592351        -0.752584
 C         3.064847        -1.060652        -1.102621
 C         3.578547        -0.207060         0.224986
 C         3.905477         0.970615        -0.720697
 C         2.960928         0.401988        -1.729786
 O         1.610437         0.746819        -1.338548
 O         2.330717         0.190971         0.891134
 H        -0.299192        -0.497969         1.080457
 H        -0.242583         1.249464         0.701017
 H        -0.851943         0.029161        -0.515061
 H         1.709461        -2.248566         0.149161
 H         1.039889        -1.963420        -1.445156
 H         3.876863        -1.862033        -1.493996
 H         4.476439        -0.463069         0.861711
 H         3.644968         2.013780        -0.534456
 H         5.000955         0.903616        -0.922833
 H         3.073310         0.681179        -2.841381
