19
Iteration:  3871charge 0 multiplicity 1
 C        -0.067998         0.161220         0.264889
 C         1.333142        -0.164626        -0.198874
 C         1.720903        -1.485005        -0.749347
 C         3.139365        -1.068281        -1.012070
 C         3.508170        -0.162173         0.217578
 C         3.904920         1.005326        -0.701512
 C         2.977279         0.402254        -1.804841
 O         1.609579         0.764659        -1.354834
 O         2.332759         0.139898         0.926680
 H        -0.236851        -0.667344         1.049235
 H        -0.311174         1.236552         0.448283
 H        -0.714529        -0.116957        -0.677505
 H         1.688680        -2.363184        -0.081050
 H         1.040528        -1.727701        -1.587232
 H         3.700473        -1.883254        -1.413198
 H         4.413744        -0.593898         0.691865
 H         3.655379         1.979867        -0.295631
 H         4.949135         1.047299        -1.084446
 H         3.156224         0.614822        -2.848541
