19
Iteration:  4049charge 0 multiplicity 1
 C        -0.092118         0.171961         0.357556
 C         1.303259        -0.037652        -0.224072
 C         1.725313        -1.540948        -0.751661
 C         3.155136        -1.083744        -1.068620
 C         3.567748        -0.131392         0.249485
 C         3.933221         0.978315        -0.694174
 C         2.933031         0.314125        -1.751536
 O         1.631984         0.765717        -1.454535
 O         2.276511         0.144567         0.890350
 H        -0.374718        -0.658805         1.029353
 H        -0.208137         1.026333         1.081795
 H        -0.620744        -0.005531        -0.605886
 H         1.826889        -2.361282         0.016680
 H         1.207069        -1.720429        -1.671613
 H         3.969900        -1.740270        -1.597718
 H         4.245354        -0.573632         1.009673
 H         3.634459         1.953362        -0.279323
 H         4.924284         0.986121        -1.061985
 H         3.157578         0.744515        -2.765314
