19
Iteration:  3959charge 0 multiplicity 1
 C        -0.085083         0.104838         0.288587
 C         1.274778        -0.126405        -0.232247
 C         1.607617        -1.582439        -0.755117
 C         3.179731        -1.070161        -0.970019
 C         3.619816        -0.187427         0.184508
 C         3.938788         1.031600        -0.718399
 C         2.966357         0.381838        -1.711664
 O         1.648717         0.810312        -1.342193
 O         2.336762         0.178218         0.831224
 H        -0.458421        -0.546011         1.181562
 H        -0.521980         1.106867         0.510361
 H        -0.728159        -0.252993        -0.539739
 H         1.398166        -2.345994        -0.051478
 H         1.171408        -1.572235        -1.708038
 H         3.838334        -1.713902        -1.489153
 H         4.311488        -0.559083         0.946750
 H         3.682530         1.995076        -0.285481
 H         4.938235         0.978823        -1.191342
 H         3.189417         0.733685        -2.689166
