19
Iteration:  4403
 C        -0.112199         0.151241         0.215032
 C         1.336108        -0.081055        -0.199065
 C         1.641102        -1.452786        -0.697275
 C         3.149058        -1.034647        -1.039028
 C         3.563856        -0.196425         0.238994
 C         4.005713         1.047078        -0.745340
 C         2.984969         0.328330        -1.687506
 O         1.607662         0.654482        -1.346517
 O         2.296247         0.157502         0.812086
 H        -0.410891        -0.659367         0.910414
 H        -0.011057         1.088230         0.850452
 H        -0.884026         0.163178        -0.553816
 H         1.719164        -2.328617         0.053828
 H         1.031245        -1.623856        -1.539146
 H         3.928177        -1.594033        -1.484127
 H         4.228039        -0.356279         1.097323
 H         3.686634         2.030188        -0.387430
 H         5.002925         0.818157        -1.123135
 H         3.031931         0.587927        -2.769607
