19
Iteration:   665charge 0 multiplicity 1
 C        -0.083831         0.107482         0.407545
 C         1.385557        -0.133366        -0.093432
 C         1.608467        -1.449901        -0.887596
 C         3.096555        -1.031992        -1.107737
 C         3.593508        -0.238910         0.150216
 C         4.016587         0.996729        -0.770575
 C         2.913138         0.413882        -1.758418
 O         1.546710         0.788459        -1.263197
 O         2.399485         0.099279         0.881730
 H        -0.420286        -0.693471         1.048747
 H        -0.184132         1.098967         0.936045
 H        -0.741327         0.181300        -0.492421
 H         1.402977        -2.443496        -0.426542
 H         1.074255        -1.299915        -1.824070
 H         3.870638        -1.744477        -1.465443
 H         4.354103        -0.607762         0.846432
 H         3.675894         2.057061        -0.463651
 H         5.081072         0.869110        -1.055416
 H         2.998001         0.671262        -2.739523
