19
Iteration:  1006
 C        -0.035836         0.183545         0.476783
 C         1.316849        -0.156444        -0.205222
 C         1.683733        -1.547573        -0.854862
 C         3.094867        -1.023347        -1.180938
 C         3.536246        -0.249270         0.187457
 C         3.950791         1.002680        -0.714936
 C         2.954076         0.457191        -1.717836
 O         1.594566         0.770791        -1.270279
 O         2.335783         0.132014         0.803281
 H        -0.038761        -0.394448         1.374163
 H        -0.099882         1.247795         0.550983
 H        -0.898205        -0.201593        -0.029464
 H         1.863932        -2.266195        -0.071275
 H         1.014693        -1.847150        -1.699395
 H         3.854057        -1.638700        -1.694562
 H         4.263514        -0.742424         0.889156
 H         3.676008         2.039742        -0.358577
 H         4.976193         0.970136        -1.040317
 H         3.099784         0.648175        -2.799972
