19
Iteration:  4449charge 0 multiplicity 1
 C        -0.071688         0.188124         0.248422
 C         1.337034        -0.162140        -0.250071
 C         1.739653        -1.496150        -0.698356
 C         3.133082        -1.012265        -1.040997
 C         3.525495        -0.092003         0.221352
 C         3.981433         0.991469        -0.744197
 C         2.941313         0.372987        -1.739064
 O         1.688845         0.665425        -1.290483
 O         2.222495         0.172626         0.852452
 H        -0.500803        -0.631301         0.766871
 H        -0.113737         1.062065         0.863162
 H        -0.744137         0.239769        -0.600400
 H         1.605422        -2.233772         0.237301
 H         1.106285        -1.840357        -1.584929
 H         3.794371        -1.736339        -1.504676
 H         4.160627        -0.692762         0.858239
 H         3.838673         2.049743        -0.488139
 H         4.895292         0.671825        -1.174395
 H         2.951104         0.485836        -2.791240
