19
Iteration:   603charge 0 multiplicity 1
 C        -0.041964         0.155148         0.464769
 C         1.294739        -0.083520        -0.191113
 C         1.694457        -1.474953        -0.836754
 C         3.095364        -1.009906        -1.185271
 C         3.626954        -0.267181         0.134273
 C         3.973470         0.960653        -0.706376
 C         2.930787         0.449320        -1.699673
 O         1.555472         0.800598        -1.299006
 O         2.327083         0.055925         0.822928
 H        -0.020795        -0.356727         1.382840
 H        -0.139895         1.193383         0.784389
 H        -0.960336        -0.263223        -0.036668
 H         1.703800        -2.268055        -0.091790
 H         1.030573        -1.763342        -1.633919
 H         3.862955        -1.586507        -1.686102
 H         4.244763        -0.771303         0.920953
 H         3.898983         1.990399        -0.344382
 H         4.959839         0.909339        -1.095676
 H         3.019265         0.717970        -2.808579
