19
Iteration:  4692
 C        -0.148537         0.167842         0.305000
 C         1.296811        -0.127022        -0.160208
 C         1.743814        -1.482618        -0.757183
 C         3.271744        -1.021156        -1.065294
 C         3.538430        -0.171650         0.310722
 C         4.060832         0.999035        -0.747990
 C         2.902286         0.322453        -1.691205
 O         1.581461         0.696846        -1.406690
 O         2.235362         0.203502         0.815677
 H        -0.408293        -0.296420         1.247479
 H        -0.358280         1.232465         0.415254
 H        -0.898386        -0.075072        -0.390417
 H         1.963720        -2.301785        -0.069309
 H         1.138850        -1.782954        -1.775750
 H         4.049681        -1.689264        -1.382780
 H         4.140263        -0.755780         0.997429
 H         3.883119         2.021244        -0.538223
 H         5.019799         0.730455        -1.168469
 H         3.020882         0.531942        -2.669618
