19
Iteration:  4192
 C        -0.093074         0.152366         0.241616
 C         1.340227        -0.128965        -0.197916
 C         1.699936        -1.505863        -0.704887
 C         3.160224        -1.038010        -0.986522
 C         3.590638        -0.150270         0.180229
 C         3.970233         1.005492        -0.737866
 C         2.964883         0.341473        -1.740235
 O         1.588859         0.739650        -1.274658
 O         2.252721         0.143540         0.787005
 H        -0.525661        -0.541510         0.967395
 H         0.030442         1.151298         0.691931
 H        -0.738656         0.242947        -0.690967
 H         1.812515        -2.251078         0.121285
 H         1.186521        -1.756281        -1.604954
 H         3.853006        -1.578615        -1.604840
 H         4.194123        -0.562219         1.009547
 H         3.743993         2.011413        -0.390772
 H         5.029293         0.853671        -0.972405
 H         2.957828         0.444579        -2.839919
