19
Iteration:  2685
 C        -0.029777         0.140501         0.358742
 C         1.308454        -0.215627        -0.187959
 C         1.764215        -1.553723        -0.745492
 C         3.074953        -1.030152        -1.057156
 C         3.517643        -0.173069         0.197563
 C         3.913612         0.948314        -0.740237
 C         2.977536         0.430095        -1.792539
 O         1.664848         0.855076        -1.453174
 O         2.263456         0.149903         0.928702
 H        -0.198637        -0.111732         1.438295
 H        -0.192240         1.256272         0.164985
 H        -1.035184        -0.134305        -0.100136
 H         1.688235        -2.349866         0.203031
 H         1.115590        -2.076501        -1.524126
 H         3.899891        -1.813065        -1.378471
 H         4.198396        -0.585887         0.973894
 H         3.691048         1.925470        -0.330316
 H         4.984701         0.933766        -1.049481
 H         3.283256         0.584573        -2.870750
