19
Iteration:  4003
 C        -0.123990         0.216744         0.239033
 C         1.265574        -0.105641        -0.223652
 C         1.787962        -1.632871        -0.712474
 C         3.152059        -1.070608        -1.023529
 C         3.580174        -0.175443         0.230234
 C         3.970450         0.976026        -0.747414
 C         2.926358         0.502519        -1.731821
 O         1.590858         0.796384        -1.341183
 O         2.270850         0.097758         0.835016
 H        -0.370478        -0.580196         1.042701
 H        -0.065703         1.005951         1.034918
 H        -0.948561         0.255641        -0.471533
 H         1.850129        -2.307515         0.079189
 H         1.454589        -1.991358        -1.646069
 H         3.932941        -1.685307        -1.451938
 H         4.302680        -0.398680         1.011732
 H         3.939274         2.029781        -0.421085
 H         4.985027         0.714341        -1.140356
 H         3.031520         0.386584        -2.770911
