19
Iteration:  1370charge 0 multiplicity 1
 C        -0.040961         0.153215         0.401544
 C         1.356872        -0.132713        -0.187969
 C         1.656417        -1.536567        -0.789234
 C         3.083739        -0.980904        -1.159473
 C         3.468190        -0.248863         0.165811
 C         4.013452         1.065038        -0.790902
 C         2.984561         0.441532        -1.737829
 O         1.658536         0.788803        -1.297201
 O         2.246622         0.069573         0.900055
 H        -0.081855        -0.412829         1.316134
 H        -0.226367         1.165096         0.695209
 H        -0.802035        -0.300672        -0.216255
 H         1.735707        -2.339885        -0.053721
 H         1.136384        -1.879806        -1.691002
 H         3.904440        -1.680744        -1.501471
 H         4.058422        -0.926450         0.754089
 H         3.879684         2.151791        -0.511747
 H         5.176031         1.029573        -0.955495
 H         3.074063         0.594924        -2.769252
