19
Iteration:  1096
 C        -0.069870         0.141950         0.310127
 C         1.290885        -0.076946        -0.177141
 C         1.646956        -1.471855        -0.804581
 C         3.094939        -1.032520        -1.102928
 C         3.672764        -0.138053         0.184949
 C         4.049179         1.002338        -0.729581
 C         2.850117         0.438363        -1.689262
 O         1.527370         0.744739        -1.285816
 O         2.415061         0.044906         0.826318
 H        -0.128102        -0.870419         0.843513
 H        -0.251532         0.966431         1.048222
 H        -0.874481         0.131500        -0.319582
 H         1.551015        -2.291917        -0.045074
 H         0.935898        -1.593329        -1.614879
 H         3.666263        -1.738844        -1.691668
 H         4.389507        -0.555002         0.944360
 H         3.979802         2.018600        -0.310227
 H         4.999112         0.675262        -1.125275
 H         2.844007         0.527852        -2.741254
