19
Iteration:   420
 C        -0.159618         0.047726         0.370536
 C         1.308921        -0.085607        -0.158395
 C         1.670679        -1.370229        -0.779285
 C         3.068414        -1.035143        -1.108592
 C         3.673948        -0.245596         0.082915
 C         3.979102         0.980686        -0.719484
 C         2.910194         0.458486        -1.741693
 O         1.537711         0.842109        -1.302882
 O         2.472743         0.032254         0.879268
 H        -0.276902        -0.437219         1.288467
 H        -0.311489         1.096778         0.569532
 H        -0.729088        -0.499799        -0.414537
 H         1.393390        -2.166702        -0.072221
 H         1.025075        -1.718804        -1.595744
 H         3.685406        -1.784555        -1.600825
 H         4.347897        -0.759879         0.820128
 H         3.880323         1.961446        -0.273291
 H         5.103063         0.915546        -0.977842
 H         2.907019         0.664538        -2.781995
