19
Iteration:  4729
 C        -0.051457         0.122345         0.316417
 C         1.294872        -0.096439        -0.262018
 C         1.705041        -1.547035        -0.681345
 C         3.152478        -1.082369        -1.100590
 C         3.548267        -0.210806         0.245780
 C         3.940300         1.019509        -0.679540
 C         2.970947         0.340670        -1.692511
 O         1.656955         0.823895        -1.411560
 O         2.252091         0.193373         0.798012
 H        -0.067903        -0.229830         1.352289
 H        -0.267337         1.183545         0.243148
 H        -0.682583        -0.559478        -0.271788
 H         1.614441        -2.189289         0.231701
 H         1.052809        -2.042748        -1.428603
 H         3.997683        -1.776594        -1.244780
 H         4.141206        -0.481766         1.147245
 H         3.578811         2.049365        -0.419649
 H         4.891306         1.196178        -1.174725
 H         3.079407         0.289798        -2.843746
