19
Iteration:  2339
 C        -0.111623         0.168989         0.347501
 C         1.241109        -0.030518        -0.247000
 C         1.770626        -1.512114        -0.808191
 C         3.186090        -1.017768        -0.968418
 C         3.549765        -0.168945         0.240003
 C         3.981184         0.990245        -0.775007
 C         2.950198         0.343840        -1.761978
 O         1.568324         0.754973        -1.330407
 O         2.306190         0.081233         0.858020
 H        -0.071356        -0.413715         1.223548
 H        -0.274560         1.168934         0.618989
 H        -0.988128        -0.112520        -0.255406
 H         1.553854        -2.278438        -0.098279
 H         1.296681        -1.602327        -1.725566
 H         3.891676        -1.781047        -1.374426
 H         4.322122        -0.566725         0.902115
 H         3.881367         2.043842        -0.529614
 H         5.013768         0.688648        -1.165965
 H         3.178324         0.451483        -2.823625
