19
Iteration:  3055charge 0 multiplicity 1
 C        -0.110734         0.159784         0.297167
 C         1.291898        -0.116988        -0.272076
 C         1.768547        -1.490174        -0.645800
 C         3.152152        -1.055249        -1.022509
 C         3.514323        -0.187463         0.179286
 C         3.928302         0.956621        -0.769859
 C         2.993481         0.418677        -1.790138
 O         1.637505         0.787964        -1.315652
 O         2.262550         0.124731         0.836863
 H        -0.298307        -0.614129         1.101244
 H        -0.141851         1.075445         0.893235
 H        -0.940044         0.092396        -0.440979
 H         1.739961        -2.277746         0.068494
 H         1.170487        -1.699055        -1.504449
 H         3.976378        -1.635368        -1.155434
 H         4.243425        -0.636308         0.827884
 H         3.890142         1.961136        -0.348160
 H         4.908675         0.744317        -1.141359
 H         3.199544         0.428114        -2.821275
