19
Iteration:  2920
 C        -0.082071         0.097759         0.295347
 C         1.349229        -0.125065        -0.179846
 C         1.724646        -1.466766        -0.713420
 C         3.079425        -1.016940        -1.005538
 C         3.548986        -0.170702         0.154137
 C         4.024947         0.983011        -0.724153
 C         2.985509         0.418677        -1.736461
 O         1.626299         0.742637        -1.336231
 O         2.191298         0.139948         0.792559
 H         0.063609        -0.193840         1.340296
 H        -0.098731         1.219535         0.340347
 H        -0.881417        -0.466266        -0.166358
 H         1.774615        -2.228787         0.035037
 H         1.122096        -1.827908        -1.498627
 H         3.849120        -1.626118        -1.641192
 H         4.046224        -0.753594         0.976403
 H         3.928355         2.008545        -0.402672
 H         5.087933         0.798687        -0.932988
 H         3.060851         0.572215        -2.899511
