19
Iteration:  1926charge 0 multiplicity 1
 C        -0.028388         0.216846         0.342045
 C         1.273991        -0.117446        -0.198900
 C         1.715232        -1.591859        -0.816846
 C         3.150407        -1.076176        -1.019003
 C         3.632422        -0.194017         0.241495
 C         3.916130         0.996264        -0.738499
 C         2.921931         0.483126        -1.713585
 O         1.560825         0.754212        -1.363069
 O         2.344053         0.109457         0.825013
 H        -0.083333        -0.231718         1.289761
 H        -0.103678         1.276786         0.511069
 H        -0.871323        -0.138562        -0.253586
 H         1.218936        -2.418717        -0.174985
 H         1.117518        -1.851488        -1.804388
 H         3.779041        -1.792603        -1.493904
 H         4.277514        -0.458189         1.090476
 H         3.755105         1.966724        -0.216194
 H         4.958475         0.815082        -1.219226
 H         3.102188         0.673968        -2.746564
