19
Iteration:  2148charge 0 multiplicity 1
 C        -0.054074         0.149076         0.319717
 C         1.361086        -0.111978        -0.160607
 C         1.582178        -1.452596        -0.837467
 C         3.117339        -1.021460        -1.085221
 C         3.590074        -0.121096         0.264764
 C         3.965850         0.990009        -0.733872
 C         2.993733         0.359307        -1.728265
 O         1.617850         0.725093        -1.349447
 O         2.289451         0.087547         0.870261
 H        -0.243619        -0.507396         1.199116
 H        -0.213597         1.219562         0.538991
 H        -0.782806        -0.112055        -0.405389
 H         1.814312        -2.304899        -0.083209
 H         0.828276        -1.729418        -1.683552
 H         3.749374        -1.792246        -1.523463
 H         4.391264        -0.351259         0.988882
 H         3.764452         2.092356        -0.468613
 H         4.996737         0.664559        -1.032971
 H         3.111949         0.584090        -2.794736
