19
Iteration:  4668charge 0 multiplicity 1
 C        -0.052682         0.153033         0.203668
 C         1.315279        -0.132797        -0.246838
 C         1.699458        -1.546564        -0.691937
 C         3.178731        -1.047767        -1.002220
 C         3.517832        -0.086301         0.178145
 C         3.983653         0.990500        -0.740747
 C         2.920363         0.354641        -1.749652
 O         1.631074         0.742438        -1.267743
 O         2.258378         0.150804         0.856090
 H        -0.451618        -0.560576         0.966288
 H        -0.161094         1.153959         0.607876
 H        -0.815806         0.188581        -0.650156
 H         1.618564        -2.340091         0.113698
 H         1.366641        -1.819128        -1.698380
 H         3.977730        -1.811378        -1.159991
 H         4.366241        -0.283184         0.849750
 H         3.765630         1.995350        -0.337010
 H         4.999531         0.798499        -1.136708
 H         2.956985         0.431069        -2.836176
