19
Iteration:  1972charge 0 multiplicity 1
 C        -0.091097         0.106530         0.286676
 C         1.278438        -0.052405        -0.151914
 C         1.708751        -1.492813        -0.783841
 C         3.114327        -1.044787        -1.086659
 C         3.594410        -0.164297         0.201883
 C         3.986462         0.913371        -0.765478
 C         2.885161         0.393045        -1.764921
 O         1.632182         0.784025        -1.288990
 O         2.327503         0.137221         0.926091
 H        -0.447536        -0.495027         1.035702
 H        -0.377785         1.050934         0.559709
 H        -0.693070        -0.069005        -0.629428
 H         1.711243        -2.421464        -0.147645
 H         1.011817        -1.719915        -1.660060
 H         3.911279        -1.729406        -1.498480
 H         4.370369        -0.534643         0.888547
 H         3.921707         1.979996        -0.472140
 H         5.075699         0.852508        -1.193462
 H         3.051189         0.705631        -2.762596
