19
Iteration:  4733
 C        -0.063953         0.130490         0.314443
 C         1.294285        -0.074009        -0.238890
 C         1.752874        -1.516222        -0.701490
 C         3.154775        -1.087672        -1.074544
 C         3.551155        -0.204724         0.207697
 C         3.937036         1.020282        -0.698142
 C         3.000485         0.315701        -1.727479
 O         1.642258         0.794716        -1.371682
 O         2.227922         0.183704         0.803697
 H        -0.168715        -0.256638         1.364561
 H        -0.309999         1.205352         0.203421
 H        -0.813757        -0.554952        -0.255375
 H         1.600483        -2.083435         0.220900
 H         1.077804        -1.879059        -1.411146
 H         4.009970        -1.753735        -1.305150
 H         4.115179        -0.490804         1.103279
 H         3.575682         1.987577        -0.262342
 H         4.963374         1.154039        -1.160847
 H         3.115799         0.275047        -2.859692
