19
Iteration:  4924
 C        -0.118598         0.200718         0.314608
 C         1.281759        -0.076267        -0.227678
 C         1.699819        -1.605187        -0.714432
 C         3.097159        -1.054486        -1.031860
 C         3.522828        -0.156532         0.214750
 C         4.049272         1.026873        -0.685298
 C         3.013775         0.412414        -1.730608
 O         1.608421         0.675404        -1.402279
 O         2.272742         0.172721         0.815993
 H        -0.144262        -0.168153         1.359034
 H        -0.241945         1.264537         0.152463
 H        -0.873187        -0.413084        -0.255923
 H         1.854891        -2.422062        -0.002341
 H         1.149759        -1.917367        -1.653242
 H         3.925471        -1.711842        -1.363810
 H         4.099363        -0.389189         1.137564
 H         4.035280         2.083938        -0.339342
 H         5.059261         0.770554        -1.051027
 H         3.087785         0.623749        -2.745051
