19
Iteration:  2807
 C        -0.047033         0.172737         0.312176
 C         1.249836        -0.105074        -0.245468
 C         1.722081        -1.527746        -0.784080
 C         3.160380        -1.104783        -1.036540
 C         3.538657        -0.124362         0.238004
 C         3.917658         0.973059        -0.754716
 C         2.968958         0.373456        -1.790242
 O         1.634820         0.671529        -1.334540
 O         2.308025         0.229792         0.930698
 H        -0.407436        -0.641153         0.949017
 H         0.156665         0.912498         1.038209
 H        -0.838086         0.477670        -0.375228
 H         1.383785        -2.405546        -0.251938
 H         1.097820        -1.716502        -1.737613
 H         3.842855        -1.661540        -1.493666
 H         4.278382        -0.532485         0.941061
 H         4.001272         1.946840        -0.254825
 H         4.850900         0.843746        -1.250316
 H         3.029898         0.728536        -2.835012
