19
Iteration:  1514charge 0 multiplicity 1
 C         0.007038         0.174164         0.328948
 C         1.237144        -0.123233        -0.214274
 C         1.754675        -1.543233        -0.710077
 C         3.096309        -0.994524        -1.137842
 C         3.578532        -0.200637         0.186452
 C         3.953286         1.013151        -0.726197
 C         2.906681         0.413791        -1.663683
 O         1.559858         0.867825        -1.320101
 O         2.354971        -0.046975         0.822923
 H        -0.433834        -0.342342         1.088927
 H         0.149912         1.223139         0.411344
 H        -0.696390         0.124224        -0.511226
 H         1.742170        -2.113208         0.240595
 H         1.031670        -1.905776        -1.499481
 H         3.718820        -1.733172        -1.592636
 H         4.209884        -0.762805         0.933638
 H         4.038009         2.047016        -0.421911
 H         4.989805         1.036359        -1.162846
 H         2.815136         0.676577        -2.755053
