19
Iteration:  2356
 C        -0.063376         0.096704         0.328182
 C         1.310836        -0.162461        -0.209608
 C         1.645606        -1.495100        -0.792325
 C         3.111378        -1.036605        -0.987760
 C         3.648085        -0.191400         0.250183
 C         4.048922         0.932619        -0.730376
 C         2.877073         0.391722        -1.625707
 O         1.523706         0.782988        -1.399153
 O         2.353098         0.230045         0.795981
 H        -0.456535        -0.686353         1.097741
 H        -0.092527         1.245102         0.526570
 H        -0.775441        -0.122169        -0.543123
 H         1.453677        -2.414125        -0.119290
 H         1.236952        -1.738745        -1.867869
 H         3.830694        -1.648335        -1.516318
 H         4.414996        -0.417938         1.061658
 H         3.961259         1.983181        -0.337897
 H         5.019975         0.973079        -1.165706
 H         3.041188         0.456602        -2.738885
