19
Iteration:   288
 C        -0.036322         0.094291         0.416132
 C         1.338958        -0.085149        -0.063346
 C         1.638333        -1.467859        -0.964747
 C         3.126509        -1.016482        -1.132340
 C         3.535534        -0.200687         0.178881
 C         4.023308         0.949952        -0.828872
 C         2.879343         0.434972        -1.762976
 O         1.575806         0.742016        -1.225888
 O         2.376808         0.151339         0.954311
 H        -0.314056        -0.703038         1.049345
 H        -0.273197         1.060632         0.878136
 H        -0.603217         0.024440        -0.549179
 H         1.501382        -2.406124        -0.363513
 H         1.025028        -1.502092        -1.889208
 H         3.946131        -1.614678        -1.503171
 H         4.161776        -0.807151         0.907509
 H         4.074039         2.095270        -0.599623
 H         4.927871         0.556255        -1.389612
 H         2.853329         0.758330        -2.761767
