19
Iteration:  1643
 C        -0.070566         0.228255         0.332157
 C         1.280957        -0.131959        -0.197774
 C         1.767180        -1.514623        -0.759577
 C         3.147078        -1.024794        -1.107888
 C         3.629419        -0.183264         0.203548
 C         3.896517         0.963463        -0.734056
 C         2.898193         0.381755        -1.717811
 O         1.604751         0.827354        -1.285645
 O         2.321686         0.025304         0.831392
 H        -0.261848        -0.526766         1.122922
 H         0.081054         1.254003         0.743835
 H        -0.634623         0.192916        -0.641013
 H         1.627436        -2.205096         0.055671
 H         1.118980        -1.738121        -1.615968
 H         3.751234        -1.640436        -1.764632
 H         4.274471        -0.655770         0.942300
 H         3.469849         1.869754        -0.337664
 H         4.881340         0.991046        -1.136257
 H         2.892961         0.449593        -2.786224
