19
Iteration:  2342
 C        -0.101515         0.156487         0.337060
 C         1.242463        -0.051563        -0.264707
 C         1.752179        -1.531359        -0.795677
 C         3.167148        -1.021813        -0.943353
 C         3.590523        -0.152490         0.231457
 C         3.990433         0.985435        -0.769130
 C         2.959947         0.347919        -1.743512
 O         1.540717         0.775142        -1.350484
 O         2.328883         0.098205         0.857865
 H        -0.091367        -0.429278         1.338298
 H        -0.312328         1.226806         0.713099
 H        -1.035729        -0.116689        -0.412596
 H         1.511593        -2.400216        -0.179076
 H         1.266607        -1.533022        -1.784520
 H         3.914204        -1.698548        -1.398009
 H         4.264815        -0.652458         0.984552
 H         3.888665         2.015820        -0.421815
 H         4.944958         0.666114        -1.242102
 H         3.127200         0.419937        -2.805509
