19
Iteration:  2114
 C        -0.111457         0.094328         0.360242
 C         1.266541        -0.072501        -0.264025
 C         1.732117        -1.415770        -0.806845
 C         3.164087        -1.034033        -1.041090
 C         3.625769        -0.224262         0.210296
 C         3.992884         0.897855        -0.722884
 C         2.958624         0.337847        -1.708996
 O         1.596863         0.850159        -1.293280
 O         2.251746         0.152204         0.776709
 H        -0.073284        -0.360446         1.356968
 H        -0.286908         1.109598         0.626117
 H        -0.961024        -0.328976        -0.245920
 H         1.779342        -2.160269         0.095555
 H         1.082136        -1.893467        -1.640313
 H         3.812303        -1.755142        -1.575339
 H         4.190166        -0.584166         1.077451
 H         3.923012         1.954610        -0.375064
 H         5.054070         0.820316        -1.083403
 H         2.965681         0.425818        -2.760388
