19
Iteration:  3012charge 0 multiplicity 1
 C        -0.095854         0.081885         0.263826
 C         1.275961        -0.068344        -0.196831
 C         1.685064        -1.466523        -0.724300
 C         3.229240        -1.014333        -0.960546
 C         3.553478        -0.245122         0.210071
 C         3.985745         0.970297        -0.760212
 C         2.947612         0.379542        -1.720605
 O         1.584212         0.725885        -1.354900
 O         2.332591         0.187281         0.809096
 H        -0.605738        -0.659925         0.901662
 H        -0.078399         0.879196         0.995190
 H        -0.800875         0.403744        -0.519747
 H         1.394575        -2.205134         0.020421
 H         1.236014        -1.750751        -1.686488
 H         3.828862        -1.678623        -1.426329
 H         4.188422        -0.517568         0.994825
 H         3.837848         2.022114        -0.446791
 H         4.964538         0.838274        -1.209280
 H         3.001610         0.669664        -2.693141
