19
Iteration:  1862charge 0 multiplicity 1
 C        -0.097729         0.118949         0.310233
 C         1.363364        -0.080506        -0.223916
 C         1.664774        -1.419835        -0.748827
 C         3.143240        -0.999768        -1.021328
 C         3.565678        -0.190549         0.252427
 C         3.991931         0.936740        -0.834178
 C         2.910697         0.342319        -1.778663
 O         1.603548         0.839405        -1.221993
 O         2.313195         0.072258         0.836472
 H        -0.322249        -0.675500         0.939128
 H        -0.335380         1.072036         0.689671
 H        -0.632401        -0.106693        -0.638226
 H         1.709009        -2.291325        -0.041150
 H         1.188626        -1.842337        -1.694763
 H         3.818699        -1.637378        -1.568901
 H         4.307174        -0.341091         1.043828
 H         3.754071         1.962015        -0.484666
 H         5.098698         0.773233        -1.164374
 H         2.849787         0.278371        -2.839654
