19
Iteration:  2248
 C        -0.061496         0.089080         0.342350
 C         1.346991        -0.115554        -0.294230
 C         1.669228        -1.502235        -0.719996
 C         3.093244        -1.015652        -1.066032
 C         3.501921        -0.178514         0.182924
 C         4.023015         0.965150        -0.760524
 C         3.007771         0.345586        -1.746420
 O         1.674411         0.781134        -1.228723
 O         2.213683         0.195271         0.776060
 H        -0.101972        -0.646256         1.148672
 H        -0.143293         1.084281         0.803268
 H        -0.877481        -0.005556        -0.286278
 H         1.720469        -2.071322         0.239674
 H         1.123172        -1.836080        -1.657893
 H         3.885435        -1.697330        -1.306277
 H         4.125471        -0.555324         1.020299
 H         3.719351         2.008025        -0.397534
 H         5.024895         0.751818        -1.186081
 H         2.953341         0.555251        -2.860559
