19
Iteration:  3769charge 0 multiplicity 1
 C        -0.050211         0.177772         0.246111
 C         1.298360        -0.070619        -0.265123
 C         1.776859        -1.501596        -0.723158
 C         3.161257        -1.000922        -1.083767
 C         3.571669        -0.211271         0.278258
 C         3.918877         0.993461        -0.714448
 C         2.916766         0.341417        -1.723314
 O         1.601379         0.745019        -1.292806
 O         2.250476         0.108363         0.829689
 H        -0.283825        -0.486151         1.089968
 H        -0.113887         1.236106         0.594981
 H        -0.785169         0.080956        -0.582224
 H         1.818423        -2.109951         0.131952
 H         1.428442        -1.933668        -1.626298
 H         3.874986        -1.795650        -1.409512
 H         4.301376        -0.544554         0.968097
 H         3.677997         2.046671        -0.396081
 H         4.928721         0.843330        -1.182888
 H         3.003808         0.530413        -2.816181
