19
Iteration:  3444charge 0 multiplicity 1
 C        -0.090089         0.086312         0.222705
 C         1.323125        -0.082263        -0.161470
 C         1.686127        -1.517310        -0.750365
 C         3.163990        -1.009768        -0.995709
 C         3.550103        -0.173611         0.212604
 C         3.922755         0.992199        -0.764448
 C         2.923877         0.341191        -1.772196
 O         1.631220         0.742671        -1.342793
 O         2.334950         0.227063         0.905544
 H        -0.270181        -0.803102         0.846724
 H        -0.220021         1.034521         0.808787
 H        -0.749960         0.199300        -0.589122
 H         1.642324        -2.457977        -0.127667
 H         1.126809        -1.632940        -1.761369
 H         3.738362        -1.882449        -1.469413
 H         4.186921        -0.631658         0.996363
 H         3.794682         1.918953        -0.182844
 H         4.947903         0.936258        -1.109867
 H         3.194193         0.429942        -2.771114
