19
Iteration:  4803
 C        -0.251944         0.142870         0.309024
 C         1.338995        -0.029142        -0.210862
 C         1.708492        -1.551158        -0.682098
 C         3.187883        -1.068300        -1.049117
 C         3.559352        -0.171148         0.188535
 C         3.939179         0.998643        -0.729104
 C         3.025975         0.337953        -1.739424
 O         1.649920         0.730203        -1.418915
 O         2.294394         0.206996         0.878389
 H        -0.487810        -0.705868         0.943157
 H        -0.173016         1.120261         0.820593
 H        -0.899574         0.148546        -0.548111
 H         1.982426        -2.186350         0.196330
 H         0.990621        -2.223600        -1.461143
 H         3.920009        -1.725196        -1.583672
 H         4.297852        -0.615047         0.869938
 H         3.612929         2.009084        -0.368708
 H         5.005224         1.060950        -0.977914
 H         3.155127         0.470813        -2.752599
