19
Iteration:   119charge 0 multiplicity 1
 C        -0.032367         0.154165         0.419345
 C         1.346188        -0.080925        -0.138685
 C         1.680884        -1.479605        -0.842493
 C         3.098214        -0.975467        -1.144828
 C         3.597715        -0.234140         0.176891
 C         3.905177         0.975977        -0.750344
 C         2.882632         0.436822        -1.788345
 O         1.623537         0.768231        -1.318565
 O         2.333359         0.016163         0.927942
 H        -0.276310        -0.675225         0.999250
 H         0.050041         0.965326         1.151974
 H        -0.789287         0.335784        -0.384151
 H         1.625374        -2.355513        -0.212057
 H         1.075374        -1.587332        -1.751710
 H         3.869247        -1.560411        -1.623457
 H         4.359641        -0.552978         0.864067
 H         3.669904         1.923505        -0.252494
 H         4.953298         1.018230        -1.237753
 H         3.018203         0.633951        -2.943352
