19
Iteration:  3413charge 0 multiplicity 1
 C        -0.152453         0.151046         0.225087
 C         1.231240        -0.170344        -0.268500
 C         1.784276        -1.571932        -0.682661
 C         3.154159        -0.998889        -1.001411
 C         3.576438        -0.109667         0.222695
 C         3.988106         0.963642        -0.784258
 C         2.975087         0.409162        -1.749400
 O         1.624101         0.798662        -1.308709
 O         2.284361         0.125161         0.861430
 H        -0.525375        -0.586210         0.938423
 H        -0.258628         0.993820         0.976814
 H        -0.980497         0.378404        -0.409875
 H         1.879955        -2.158624         0.292712
 H         1.110276        -2.029786        -1.509572
 H         3.844289        -1.773952        -1.574372
 H         4.275518        -0.595242         0.965236
 H         4.032243         2.041292        -0.388498
 H         4.980295         0.621816        -1.249737
 H         3.031880         0.515927        -2.889104
