19
Iteration:  2411
 C        -0.036484         0.176924         0.277921
 C         1.291058        -0.104752        -0.220168
 C         1.678663        -1.483630        -0.687403
 C         3.197963        -1.048983        -0.999996
 C         3.581539        -0.130098         0.231738
 C         3.969252         1.018485        -0.806283
 C         2.907035         0.339057        -1.705958
 O         1.602433         0.776705        -1.288205
 O         2.266538         0.037490         0.781927
 H        -0.488208        -0.671821         0.932307
 H        -0.104382         1.215602         0.820150
 H        -0.760199         0.265779        -0.562634
 H         1.602782        -2.329813         0.046257
 H         1.262598        -1.670708        -1.725434
 H         3.895200        -1.793936        -1.378695
 H         4.367424        -0.308801         0.972501
 H         3.876006         2.086091        -0.495265
 H         4.939778         0.812507        -1.237996
 H         3.042407         0.422759        -2.811439
