19
Iteration:  4537
 C        -0.138213         0.201328         0.197626
 C         1.333348        -0.122472        -0.249442
 C         1.813015        -1.466936        -0.741450
 C         3.179014        -1.051901        -0.942954
 C         3.588835        -0.194046         0.242710
 C         3.951017         0.934530        -0.758801
 C         2.935119         0.370481        -1.716888
 O         1.532287         0.744598        -1.300452
 O         2.291516         0.150069         0.849601
 H        -0.243114        -0.127417         1.222172
 H        -0.441112         1.211102         0.123302
 H        -0.771974        -0.419742        -0.453683
 H         1.585555        -2.337901         0.032824
 H         1.152199        -1.727535        -1.632317
 H         3.972778        -1.732358        -1.365126
 H         4.315865        -0.683408         0.900318
 H         3.852945         2.009419        -0.535207
 H         4.918320         0.972625        -1.219666
 H         3.137752         0.729693        -2.689051
