19
Iteration:  3210charge 0 multiplicity 1
 C        -0.068427         0.143883         0.265036
 C         1.303741        -0.139153        -0.242390
 C         1.751860        -1.466781        -0.687718
 C         3.108618        -1.007933        -1.049097
 C         3.591593        -0.130167         0.212955
 C         3.925928         1.010177        -0.700260
 C         2.939712         0.291354        -1.765861
 O         1.645107         0.730629        -1.346105
 O         2.284847         0.128975         0.858073
 H        -0.636731        -0.654467         0.818232
 H        -0.103191         1.170916         0.865939
 H        -0.812603         0.436201        -0.541874
 H         1.955488        -2.128994         0.224877
 H         0.952985        -1.955143        -1.358410
 H         3.691810        -1.723048        -1.825542
 H         4.144565        -0.594784         1.117649
 H         3.690536         1.996939        -0.305190
 H         4.940515         1.067630        -1.133474
 H         3.271013         0.473594        -2.910654
