19
Iteration:  4232charge 0 multiplicity 1
 C        -0.077598         0.101995         0.242611
 C         1.294592        -0.085862        -0.203550
 C         1.705805        -1.437288        -0.643927
 C         3.170230        -0.991214        -1.054800
 C         3.593760        -0.129610         0.203774
 C         4.025206         0.995859        -0.690747
 C         2.912305         0.313891        -1.731546
 O         1.596560         0.726902        -1.363802
 O         2.265196         0.102016         0.810576
 H        -0.527445        -0.709668         0.821161
 H        -0.075628         1.017278         0.882455
 H        -0.676648         0.292409        -0.679588
 H         1.447519        -2.167831        -0.010518
 H         1.054262        -1.861525        -1.497118
 H         3.886564        -1.779383        -1.301670
 H         4.277419        -0.514520         0.951047
 H         3.846436         2.074850        -0.365481
 H         5.061944         0.930715        -1.100504
 H         3.033209         0.502468        -2.775683
