19
Iteration:  1012
 C        -0.017027         0.176397         0.494856
 C         1.321491        -0.099598        -0.185628
 C         1.712236        -1.553251        -0.855908
 C         3.105443        -0.965652        -1.173624
 C         3.547804        -0.233710         0.192680
 C         3.952701         0.953926        -0.715839
 C         2.939680         0.438969        -1.736234
 O         1.564531         0.759631        -1.306887
 O         2.315144         0.107586         0.828374
 H        -0.026667        -0.374317         1.471874
 H        -0.113175         1.293140         0.560079
 H        -0.770691        -0.213294        -0.305539
 H         1.759001        -2.460140        -0.183738
 H         1.018716        -1.719350        -1.676019
 H         3.800358        -1.558060        -1.780258
 H         4.282785        -0.599966         0.877094
 H         3.740392         1.938947        -0.258622
 H         5.127512         0.980649        -0.904808
 H         2.963396         0.493289        -2.852301
