19
Iteration:   626charge 0 multiplicity 1
 C         0.091414         0.187665         0.373672
 C         1.310634        -0.162656        -0.252880
 C         1.745447        -1.549022        -0.730674
 C         3.077824        -1.073756        -1.098470
 C         3.614034        -0.188233         0.158029
 C         3.935450         0.955450        -0.724472
 C         2.871439         0.541037        -1.721109
 O         1.514905         0.921206        -1.237163
 O         2.307563        -0.063719         0.771875
 H        -0.162642        -0.257254         1.316537
 H         0.265071         1.242227         0.560659
 H        -0.744145        -0.129108        -0.313639
 H         1.534011        -2.148881         0.144171
 H         1.073736        -1.933131        -1.499825
 H         3.758740        -1.659498        -1.686523
 H         4.260318        -0.907751         0.735223
 H         3.885619         1.979900        -0.362301
 H         4.933772         0.915772        -1.097738
 H         2.885288         0.911672        -2.865620
