19
Iteration:  4813
 C        -0.101997         0.123317         0.298749
 C         1.241599        -0.044551        -0.183922
 C         1.704316        -1.480755        -0.655434
 C         3.145406        -1.061551        -1.071770
 C         3.664376        -0.192365         0.164509
 C         4.012020         1.032567        -0.672569
 C         3.012557         0.328437        -1.751819
 O         1.615428         0.685538        -1.461055
 O         2.223727         0.205860         0.864960
 H        -0.359457        -0.767281         0.872390
 H        -0.361567         0.977866         1.008159
 H        -0.830205         0.266091        -0.469759
 H         1.652715        -2.147989         0.214151
 H         1.134907        -1.973903        -1.582077
 H         3.823198        -1.852603        -1.479026
 H         4.275080        -0.431912         1.039215
 H         3.519510         1.989753        -0.445683
 H         5.090890         1.048811        -0.868489
 H         3.098119         0.431013        -2.754992
