19
Iteration:  1942charge 0 multiplicity 1
 C        -0.060868         0.187372         0.352061
 C         1.296841        -0.115032        -0.259244
 C         1.692328        -1.515789        -0.739437
 C         3.118947        -1.044727        -1.070398
 C         3.530996        -0.121460         0.183595
 C         3.970998         1.016818        -0.759532
 C         2.943343         0.341414        -1.750588
 O         1.663357         0.812460        -1.245494
 O         2.265175        -0.002416         0.815327
 H        -0.240354        -0.304897         1.378507
 H        -0.228540         1.292690         0.516326
 H        -0.847019        -0.096113        -0.364057
 H         1.871436        -2.159451         0.068589
 H         1.184863        -1.882703        -1.571201
 H         3.944766        -1.692373        -1.523524
 H         4.305812        -0.463245         0.886887
 H         3.815465         2.088187        -0.569513
 H         5.015168         1.024185        -1.008302
 H         3.015573         0.506596        -2.872584
