19
Iteration:   806
 C        -0.061546         0.078308         0.472280
 C         1.307261        -0.093900        -0.175884
 C         1.770837        -1.428026        -0.828153
 C         3.122259        -0.988387        -1.090158
 C         3.662862        -0.291216         0.168314
 C         3.952340         0.912058        -0.701295
 C         2.827827         0.389139        -1.662492
 O         1.560785         0.867386        -1.263736
 O         2.344897         0.100990         0.699967
 H        -0.169536        -0.389119         1.405663
 H        -0.276581         1.202417         0.541253
 H        -0.779237        -0.347952        -0.398135
 H         1.468259        -2.307911        -0.174058
 H         1.099581        -1.402722        -1.698907
 H         3.836208        -1.523070        -1.724226
 H         4.355318        -0.635115         0.924066
 H         3.889791         1.841270        -0.287603
 H         4.784762         0.714430        -1.357321
 H         2.927739         0.680536        -2.863749
