19
Iteration:   803
 C        -0.062860         0.084512         0.444324
 C         1.323362        -0.145973        -0.168615
 C         1.752741        -1.447957        -0.823143
 C         3.143076        -0.978827        -1.079732
 C         3.652118        -0.288992         0.190198
 C         3.959329         0.888003        -0.719247
 C         2.797133         0.435504        -1.672817
 O         1.553155         0.877857        -1.284513
 O         2.341122         0.095992         0.715447
 H        -0.072197        -0.384981         1.499996
 H        -0.276047         1.186632         0.502783
 H        -0.851561        -0.192908        -0.229054
 H         1.511112        -2.317185        -0.178069
 H         1.078345        -1.361613        -1.688440
 H         3.783344        -1.502511        -1.798316
 H         4.391583        -0.535155         0.965248
 H         3.969594         1.845455        -0.180553
 H         4.915282         0.757417        -1.452388
 H         3.069745         0.628539        -2.851414
