19
Iteration:  4037
 C        -0.110876         0.154911         0.288548
 C         1.372736        -0.100141        -0.190660
 C         1.761339        -1.521354        -0.768333
 C         3.113687        -1.036325        -1.030426
 C         3.547059        -0.220717         0.203529
 C         3.904013         0.981400        -0.693015
 C         2.983998         0.448429        -1.756438
 O         1.610492         0.661816        -1.388726
 O         2.299952         0.212986         0.865619
 H        -0.251335        -0.767173         0.914282
 H        -0.079695         1.122047         0.872907
 H        -1.017782         0.391858        -0.291417
 H         1.566426        -2.364116        -0.117974
 H         1.127608        -1.667112        -1.584383
 H         3.815570        -1.876542        -1.349245
 H         4.265605        -0.563023         0.958184
 H         3.684468         1.994014        -0.305777
 H         4.945605         0.925006        -0.987378
 H         3.122040         0.595172        -2.845674
