19
Iteration:  3248charge 0 multiplicity 1
 C        -0.154585         0.214502         0.339823
 C         1.287304        -0.101882        -0.218229
 C         1.749050        -1.531879        -0.767286
 C         3.216434        -1.078666        -1.029658
 C         3.616768        -0.107778         0.265245
 C         3.953232         0.951385        -0.718008
 C         2.946503         0.380790        -1.736628
 O         1.586042         0.710227        -1.406189
 O         2.238810         0.144371         0.842213
 H        -0.318812        -0.566447         1.066804
 H         0.013074         1.103264         0.877176
 H        -0.859583         0.303602        -0.463706
 H         1.793165        -2.313712         0.016996
 H         1.325735        -1.893775        -1.743783
 H         3.978183        -1.711108        -1.445808
 H         4.318231        -0.411362         1.048110
 H         3.932604         2.031159        -0.434332
 H         4.938121         0.661269        -1.198568
 H         2.906992         0.666412        -2.788397
