19
Iteration:  2212
 C        -0.069757         0.171273         0.308693
 C         1.286385        -0.066769        -0.136378
 C         1.679687        -1.450421        -0.795012
 C         3.112656        -0.974927        -1.006297
 C         3.598735        -0.202674         0.205851
 C         3.966324         0.975478        -0.754363
 C         2.985219         0.416065        -1.780099
 O         1.585507         0.662288        -1.378253
 O         2.313245         0.104910         0.889041
 H        -0.403055        -0.693179         0.898450
 H        -0.112896         1.062238         0.942063
 H        -0.754132         0.209154        -0.525017
 H         1.459021        -2.351150        -0.179822
 H         1.075727        -1.713350        -1.686790
 H         3.956463        -1.674677        -1.156022
 H         4.278302        -0.688531         0.920360
 H         3.930162         2.008920        -0.468747
 H         4.989738         0.903165        -1.063763
 H         3.096192         0.507283        -2.826368
