19
Iteration:  4534charge 0 multiplicity 1
 C        -0.167482         0.189870         0.205335
 C         1.353688        -0.114034        -0.225403
 C         1.810401        -1.467521        -0.756074
 C         3.165531        -1.038626        -0.971512
 C         3.605362        -0.180425         0.227444
 C         3.950201         0.917554        -0.749902
 C         2.938669         0.383918        -1.676851
 O         1.546214         0.724345        -1.311141
 O         2.268330         0.142643         0.838820
 H        -0.191729        -0.091812         1.290221
 H        -0.442910         1.313610         0.121313
 H        -0.884120        -0.381529        -0.473287
 H         1.724208        -2.226814         0.033018
 H         1.265624        -1.730047        -1.552582
 H         3.907779        -1.703933        -1.362180
 H         4.329832        -0.617140         0.943925
 H         3.909197         2.030578        -0.526344
 H         4.978171         0.899479        -1.227451
 H         3.098840         0.606069        -2.787232
