19
Iteration:   988charge 0 multiplicity 1
 C        -0.057216         0.108380         0.399797
 C         1.262931        -0.089813        -0.261111
 C         1.715315        -1.482056        -0.689245
 C         3.134361        -1.054560        -1.094812
 C         3.615982        -0.236111         0.046701
 C         3.974817         1.000324        -0.713603
 C         2.885063         0.491052        -1.713824
 O         1.620825         0.831473        -1.231998
 O         2.292610         0.013153         0.757245
 H         0.041403        -0.409719         1.486118
 H        -0.006098         1.281796         0.448291
 H        -0.909397        -0.168270        -0.216475
 H         1.548715        -2.184693         0.180658
 H         1.175178        -1.817173        -1.570121
 H         3.714582        -1.880784        -1.491860
 H         4.332643        -0.639953         0.778269
 H         3.855849         1.870400        -0.163891
 H         4.974306         1.062563        -1.257403
 H         2.888869         0.785373        -2.752607
