19
Iteration:  3617
 C        -0.087937         0.141932         0.289704
 C         1.253446        -0.084441        -0.153655
 C         1.780526        -1.501536        -0.673848
 C         3.152187        -1.052779        -1.013496
 C         3.545307        -0.154882         0.201369
 C         3.944926         0.988619        -0.726206
 C         2.972263         0.331393        -1.828529
 O         1.606737         0.797374        -1.456686
 O         2.274730         0.108072         0.912675
 H        -0.417803        -0.762093         0.927224
 H        -0.061297         1.102836         0.931773
 H        -0.771965         0.281249        -0.561032
 H         1.767849        -2.359946        -0.061759
 H         1.241607        -1.911928        -1.504540
 H         4.006344        -1.730958        -1.371773
 H         4.143044        -0.757489         0.867870
 H         3.615194         2.003579        -0.383568
 H         4.954841         1.200225        -0.946073
 H         3.294561         0.689786        -2.804831
