19
Iteration:   584
 C        -0.117915         0.062920         0.518741
 C         1.337526        -0.166827        -0.062643
 C         1.666445        -1.362817        -0.886776
 C         3.089100        -0.990844        -1.209453
 C         3.513135        -0.253293         0.126344
 C         4.001222         0.933188        -0.753489
 C         2.986998         0.419540        -1.821047
 O         1.637034         0.748547        -1.253503
 O         2.368571         0.178961         0.878926
 H        -0.530613        -0.464516         1.464066
 H        -0.279823         1.160478         0.709424
 H        -0.821788        -0.242330        -0.285392
 H         1.570141        -2.408621        -0.550182
 H         1.123207        -1.322727        -1.890979
 H         3.651961        -1.834026        -1.585127
 H         4.188727        -0.625330         1.004977
 H         3.809512         1.865700        -0.306607
 H         5.113440         0.977547        -0.972235
 H         2.980527         0.613959        -2.995607
