19
Iteration:   970charge 0 multiplicity 1
 C        -0.055010         0.142172         0.359291
 C         1.355437        -0.117120        -0.108542
 C         1.707126        -1.493460        -0.816425
 C         3.061878        -0.964171        -1.165163
 C         3.596565        -0.239503         0.215430
 C         3.966888         0.951481        -0.744727
 C         2.892868         0.403777        -1.741479
 O         1.525504         0.859956        -1.313638
 O         2.409331         0.046464         0.883910
 H        -0.216583        -0.368647         1.234552
 H        -0.393850         1.109196         0.653652
 H        -0.719567        -0.270247        -0.464280
 H         1.744148        -2.281380        -0.061226
 H         1.020897        -1.898716        -1.563018
 H         3.844338        -1.494806        -1.733391
 H         4.232031        -0.682693         0.959041
 H         3.793866         2.054857        -0.501600
 H         5.043796         0.756328        -1.232410
 H         2.992815         0.638742        -2.856783
