19
Iteration:  2149
 C        -0.068256         0.150106         0.321524
 C         1.357294        -0.110168        -0.172346
 C         1.591144        -1.448620        -0.823418
 C         3.117527        -1.020511        -1.095380
 C         3.592211        -0.122506         0.263353
 C         3.969959         0.992389        -0.731798
 C         2.986095         0.357554        -1.725240
 O         1.616863         0.724096        -1.349811
 O         2.285535         0.077375         0.873494
 H        -0.207546        -0.518191         1.221670
 H        -0.173617         1.251171         0.535214
 H        -0.740144        -0.084630        -0.444791
 H         1.822552        -2.259197        -0.047670
 H         0.858077        -1.733245        -1.680085
 H         3.743174        -1.790439        -1.529452
 H         4.409346        -0.350560         0.973511
 H         3.767854         2.113505        -0.456021
 H         5.006168         0.657399        -1.031639
 H         3.129957         0.571531        -2.823157
