19
Iteration:   689charge 0 multiplicity 1
 C        -0.033918         0.063483         0.445414
 C         1.336584        -0.037111        -0.291187
 C         1.725088        -1.484165        -0.755500
 C         3.066407        -0.996707        -1.102032
 C         3.576312        -0.223784         0.147697
 C         4.002979         0.910570        -0.755475
 C         2.844017         0.421337        -1.726027
 O         1.635544         0.906835        -1.228899
 O         2.290651         0.040391         0.774344
 H        -0.191824        -0.845718         0.942949
 H        -0.059508         0.890950         1.176846
 H        -0.951446         0.170971        -0.286854
 H         1.754665        -2.084063         0.158430
 H         1.165256        -1.952046        -1.549147
 H         3.762129        -1.589787        -1.692018
 H         4.249877        -0.735779         0.869161
 H         3.834503         2.103870        -0.481181
 H         5.010370         0.609820        -1.126538
 H         3.003735         0.698855        -2.760061
