19
Iteration:  1683
 C        -0.002616         0.152647         0.379475
 C         1.318501        -0.136572        -0.231642
 C         1.666624        -1.484504        -0.830030
 C         3.111129        -0.998923        -1.034082
 C         3.602139        -0.178603         0.253560
 C         4.003177         0.976252        -0.744140
 C         2.890146         0.395519        -1.706375
 O         1.547668         0.780207        -1.386560
 O         2.294904         0.065721         0.846467
 H        -0.107936        -0.530625         1.272246
 H         0.006107         1.145420         0.818831
 H        -0.855395         0.074768        -0.210870
 H         1.702498        -2.309308        -0.084377
 H         1.131931        -1.552385        -1.821811
 H         3.828977        -1.649747        -1.614496
 H         4.310176        -0.415412         1.037261
 H         3.852827         2.038933        -0.344885
 H         5.068498         0.775345        -1.137192
 H         3.113885         0.437742        -2.781460
