19
Iteration:   383
 C        -0.011989         0.199146         0.448515
 C         1.271832        -0.176652        -0.247931
 C         1.790103        -1.516599        -0.864062
 C         3.147909        -0.987874        -1.152696
 C         3.545691        -0.191035         0.183087
 C         3.977888         0.964527        -0.761012
 C         2.832963         0.411333        -1.766085
 O         1.568459         0.854700        -1.177627
 O         2.292066         0.007510         0.825758
 H        -0.096606        -0.339370         1.433476
 H         0.156808         1.263100         0.677906
 H        -0.941072         0.185413        -0.072453
 H         1.779067        -2.242761        -0.037683
 H         1.344801        -1.833855        -1.784291
 H         3.916652        -1.702587        -1.498865
 H         4.330727        -0.597257         0.843448
 H         3.931901         2.027709        -0.408539
 H         4.910219         0.692849        -1.136784
 H         2.847638         0.576746        -2.928031
