19
Iteration:  3395charge 0 multiplicity 1
 C        -0.127177         0.175382         0.309080
 C         1.317739        -0.056051        -0.189664
 C         1.769260        -1.573632        -0.723060
 C         3.202157        -1.009083        -1.068303
 C         3.514215        -0.208098         0.201195
 C         3.993093         0.974325        -0.753701
 C         2.905976         0.349980        -1.741938
 O         1.605144         0.731189        -1.323990
 O         2.242651         0.176834         0.841610
 H        -0.378188        -0.653822         0.987883
 H        -0.039233         1.178838         0.702025
 H        -0.688148         0.254806        -0.670622
 H         1.757643        -2.351826         0.010990
 H         1.396042        -1.914468        -1.621715
 H         4.009208        -1.591024        -1.366105
 H         4.152687        -0.486377         1.025215
 H         3.738406         1.964264        -0.412034
 H         5.059797         0.930299        -0.988077
 H         3.125355         0.568182        -2.816979
