19
Iteration:  4981
 C        -0.108651         0.060761         0.199656
 C         1.298507        -0.113493        -0.203954
 C         1.591905        -1.419413        -0.666209
 C         3.106050        -1.057517        -1.034874
 C         3.644056        -0.174600         0.226208
 C         3.930484         1.067345        -0.726185
 C         3.043199         0.270111        -1.740029
 O         1.670793         0.680912        -1.322918
 O         2.292271         0.219038         0.856245
 H        -0.418832        -0.324422         1.150666
 H        -0.188515         1.115019         0.368485
 H        -0.731508        -0.003287        -0.675347
 H         1.664380        -2.308117         0.065796
 H         0.998158        -1.743059        -1.678843
 H         3.731650        -1.742117        -1.525264
 H         4.388769        -0.372435         0.983126
 H         3.558331         2.007175        -0.345384
 H         4.950194         1.202138        -1.184329
 H         3.181925         0.430017        -2.807935
