19
Iteration:  3018charge 0 multiplicity 1
 C        -0.115525         0.077449         0.257353
 C         1.278948        -0.057090        -0.220984
 C         1.640394        -1.490338        -0.712853
 C         3.161471        -1.045368        -1.026576
 C         3.570789        -0.206996         0.222126
 C         3.965467         0.993433        -0.723472
 C         2.995155         0.375550        -1.684175
 O         1.577806         0.711177        -1.360155
 O         2.383625         0.216553         0.821422
 H        -0.384318        -0.854289         0.792805
 H        -0.010388         0.932179         0.967567
 H        -0.849498         0.376678        -0.509883
 H         1.406467        -2.360193        -0.061824
 H         1.161582        -1.684026        -1.685403
 H         3.922632        -1.859834        -1.415079
 H         4.236653        -0.365546         1.150023
 H         3.910533         1.999240        -0.310333
 H         4.928934         0.803896        -1.256280
 H         2.943344         0.671631        -2.853720
