19
Iteration:  2159
 C        -0.098634         0.187821         0.308012
 C         1.271517        -0.088051        -0.256952
 C         1.761268        -1.439314        -0.682068
 C         3.108367        -1.026925        -1.127043
 C         3.567763        -0.162892         0.209319
 C         3.978311         0.989121        -0.726190
 C         2.941956         0.386329        -1.740031
 O         1.616302         0.747418        -1.346212
 O         2.282783         0.009030         0.887959
 H        -0.244944        -0.441491         1.212584
 H        -0.042273         1.235135         0.636784
 H        -0.737295         0.031848        -0.500995
 H         1.575877        -2.152877         0.206637
 H         1.185135        -1.833460        -1.615247
 H         3.812522        -1.717825        -1.585155
 H         4.261800        -0.565418         0.973615
 H         3.933756         2.084406        -0.374070
 H         5.039687         0.902290        -1.079971
 H         3.067957         0.459309        -2.827901
