19
Iteration:    58
 C        -0.012679         0.109034         0.373013
 C         1.390431        -0.084543        -0.120697
 C         1.677092        -1.417523        -0.884520
 C         3.108465        -1.027939        -1.150879
 C         3.607257        -0.215302         0.178076
 C         4.031041         0.923099        -0.719547
 C         2.905831         0.426035        -1.735602
 O         1.425257         0.739151        -1.242412
 O         2.394588         0.132209         0.871949
 H        -0.440399        -0.313886         1.410785
 H        -0.281709         1.189007         0.350127
 H        -0.712028        -0.277176        -0.358656
 H         1.471134        -2.523545        -0.515440
 H         1.120800        -1.369809        -1.854294
 H         3.740800        -1.627254        -1.843246
 H         4.235807        -0.538722         1.053616
 H         4.075133         1.953105        -0.202158
 H         4.916204         0.598564        -1.133941
 H         2.876471         0.675139        -2.715419
