19
Iteration:  3201charge 0 multiplicity 1
 C        -0.136060         0.164113         0.288102
 C         1.321530        -0.075862        -0.264243
 C         1.775497        -1.506812        -0.645153
 C         3.114251        -1.048184        -1.096779
 C         3.529788        -0.188596         0.222001
 C         3.919180         1.016414        -0.761212
 C         3.001759         0.391640        -1.742108
 O         1.654844         0.745268        -1.366094
 O         2.300628         0.107257         0.881727
 H        -0.445965        -0.728965         0.863838
 H        -0.223180         1.065338         0.936499
 H        -0.781128         0.243187        -0.629287
 H         1.769539        -2.077568         0.335262
 H         1.065833        -2.003683        -1.422092
 H         3.752204        -1.845393        -1.591789
 H         4.259897        -0.431267         1.038536
 H         3.596190         2.011495        -0.457421
 H         5.016178         0.935594        -0.983127
 H         3.002447         0.420785        -2.815063
