19
Iteration:  1847
 C        -0.151318         0.112716         0.265349
 C         1.305088        -0.076771        -0.061395
 C         1.723411        -1.515388        -0.852901
 C         3.086595        -1.044277        -1.142001
 C         3.571006        -0.112096         0.211712
 C         3.980661         0.952396        -0.814540
 C         2.965434         0.330015        -1.760500
 O         1.634007         0.735412        -1.256296
 O         2.347404         0.182497         0.967570
 H        -0.470181        -0.677840         1.003576
 H        -0.336265         1.115367         0.780490
 H        -0.723132         0.121937        -0.586541
 H         1.532050        -2.431236        -0.298085
 H         1.053482        -1.338097        -1.661760
 H         3.866250        -1.733810        -1.436562
 H         4.258268        -0.640536         0.859234
 H         3.936757         2.048296        -0.656065
 H         4.988097         0.767275        -1.143156
 H         3.032022         0.584819        -2.845654
