19
Iteration:  4542
 C        -0.076188         0.181479         0.189462
 C         1.279831        -0.115163        -0.256357
 C         1.762914        -1.509078        -0.710930
 C         3.209274        -1.070534        -0.942454
 C         3.561824        -0.202969         0.262722
 C         3.950613         0.977044        -0.758972
 C         2.929143         0.356309        -1.757558
 O         1.540368         0.774333        -1.302485
 O         2.331450         0.159081         0.864216
 H        -0.351255        -0.206779         1.198436
 H        -0.405415         1.263593         0.077859
 H        -0.680889        -0.479947        -0.440747
 H         1.489570        -2.284384        -0.098052
 H         1.190207        -1.702501        -1.661356
 H         3.959555        -1.705688        -1.343141
 H         4.269902        -0.692591         0.952875
 H         3.679737         1.992625        -0.419087
 H         4.980939         0.928880        -1.231844
 H         3.117640         0.808461        -2.792847
