19
Iteration:   833charge 0 multiplicity 1
 C        -0.057817         0.060583         0.371726
 C         1.299933        -0.170402        -0.166457
 C         1.652936        -1.500049        -0.764511
 C         2.977115        -0.975275        -1.169132
 C         3.586632        -0.204202         0.149929
 C         4.028231         0.990824        -0.775967
 C         2.961825         0.487096        -1.836259
 O         1.661594         0.833407        -1.291170
 O         2.338363         0.060938         0.949667
 H        -0.113768        -0.575024         1.348004
 H         0.000125         1.065953         0.748388
 H        -0.829515        -0.332022        -0.274048
 H         1.564665        -2.298306        -0.067438
 H         0.762185        -1.592338        -1.404474
 H         3.729738        -1.627721        -1.633747
 H         4.390257        -0.567453         0.849828
 H         3.701279         1.969180        -0.250542
 H         5.070210         0.879732        -1.197100
 H         2.949350         0.767967        -2.831932
