19
Iteration:  1605charge 0 multiplicity 1
 C        -0.127968         0.079567         0.367122
 C         1.344872        -0.105396        -0.132925
 C         1.701938        -1.427944        -0.711508
 C         3.089996        -0.980219        -1.196388
 C         3.595605        -0.220898         0.175507
 C         4.043362         0.903379        -0.730089
 C         2.926607         0.399987        -1.733020
 O         1.608912         0.770881        -1.279872
 O         2.283950         0.148139         0.818510
 H        -0.575600        -0.565260         1.054451
 H        -0.366135         1.072838         0.656739
 H        -0.721570        -0.046909        -0.459497
 H         1.674977        -2.339004        -0.071391
 H         1.148232        -1.727605        -1.607519
 H         3.823134        -1.594193        -1.738959
 H         4.271569        -0.552697         0.979709
 H         3.958499         1.973268        -0.422200
 H         5.085425         0.803918        -1.172204
 H         3.129787         0.751761        -2.762831
