19
Iteration:   770
 C        -0.060953         0.186194         0.445601
 C         1.332632        -0.125469        -0.172569
 C         1.693649        -1.465676        -0.767845
 C         3.091803        -0.933912        -1.235275
 C         3.475989        -0.207937         0.127900
 C         3.945346         1.008663        -0.741196
 C         2.959039         0.434509        -1.791050
 O         1.678402         0.737402        -1.222431
 O         2.309687        -0.021206         0.837311
 H        -0.135127        -0.470005         1.419580
 H        -0.273627         1.249172         0.756031
 H        -0.865763        -0.221260        -0.125929
 H         1.839309        -2.254557        -0.010692
 H         0.867721        -1.719711        -1.465649
 H         3.822339        -1.591082        -1.729541
 H         4.252787        -0.623230         0.809882
 H         3.823724         2.016755        -0.301278
 H         5.070715         0.971790        -1.059332
 H         3.146090         0.683789        -2.983939
