19
Iteration:  4465
 C        -0.132114         0.122396         0.277372
 C         1.276852        -0.063449        -0.148466
 C         1.692166        -1.492468        -0.755009
 C         3.130728        -1.060709        -0.977287
 C         3.574704        -0.176073         0.228291
 C         3.983802         0.995076        -0.761762
 C         3.028341         0.336642        -1.737907
 O         1.575135         0.723633        -1.418484
 O         2.320068         0.171875         0.857527
 H        -0.454561        -0.636457         1.055142
 H        -0.187216         1.122825         0.807593
 H        -0.800234         0.179353        -0.605958
 H         1.614876        -2.367791        -0.197608
 H         1.197126        -1.725613        -1.720109
 H         3.933905        -1.801670        -1.203985
 H         4.279576        -0.358571         1.070584
 H         3.761195         2.016100        -0.380792
 H         5.088445         1.127943        -0.950114
 H         3.195573         0.439021        -2.868675
