19
Iteration:   221
 C         0.019891         0.215760         0.459523
 C         1.350225        -0.228569        -0.136346
 C         1.736203        -1.445513        -0.925403
 C         3.153581        -0.960234        -1.169653
 C         3.546515        -0.266699         0.224671
 C         3.957865         0.934516        -0.747749
 C         2.878577         0.448134        -1.752478
 O         1.492682         0.768111        -1.221204
 O         2.323684         0.075257         0.809707
 H        -0.245257        -0.046700         1.498638
 H         0.107478         1.270583         0.308101
 H        -0.713704        -0.022155        -0.240772
 H         1.733758        -2.345385        -0.296215
 H         1.072559        -1.537144        -1.749682
 H         3.964629        -1.618795        -1.598237
 H         4.278580        -0.758332         0.932156
 H         3.780055         1.995054        -0.233095
 H         4.994966         0.794765        -1.107816
 H         2.853900         0.662127        -2.821933
