19
Iteration:  3553charge 0 multiplicity 1
 C        -0.081478         0.120160         0.247364
 C         1.346382        -0.053346        -0.256482
 C         1.765009        -1.447470        -0.724420
 C         3.116416        -1.028596        -1.074143
 C         3.549182        -0.088246         0.253335
 C         3.968842         0.940451        -0.728929
 C         2.946832         0.341630        -1.723488
 O         1.616493         0.767145        -1.349607
 O         2.241105         0.088381         0.881468
 H        -0.170209        -0.469373         1.220850
 H        -0.360512         1.171760         0.581990
 H        -0.694463        -0.396699        -0.473627
 H         1.831838        -2.139607         0.176821
 H         1.079611        -1.813788        -1.610894
 H         3.831429        -1.834718        -1.538894
 H         4.264832        -0.557617         0.943659
 H         3.800289         1.977431        -0.417990
 H         4.927523         0.660692        -1.004201
 H         3.039555         0.564024        -2.772123
