19
Iteration:    30
 C        -0.140848        -0.027454         0.448512
 C         1.271203        -0.063462        -0.243141
 C         1.692581        -1.465159        -0.763617
 C         3.067595        -0.993438        -1.099858
 C         3.541961        -0.265447         0.107013
 C         4.002758         0.961335        -0.815193
 C         2.999151         0.433769        -1.737000
 O         1.686679         0.961100        -1.225622
 O         2.329820         0.078698         0.841952
 H        -0.184916        -0.411514         1.461375
 H        -0.394436         1.033716         0.622264
 H        -0.965739        -0.488068        -0.157750
 H         1.650836        -2.189643         0.039234
 H         1.164568        -2.082840        -1.512537
 H         3.693742        -1.649095        -1.721116
 H         4.188598        -0.767615         0.826758
 H         3.911913         1.954072        -0.444210
 H         5.023567         0.634160        -1.293946
 H         3.046051         0.640011        -2.905111
