19
Iteration:  1481
 C        -0.072780         0.064370         0.420830
 C         1.308387        -0.060552        -0.155435
 C         1.702568        -1.445207        -0.870311
 C         3.130416        -1.071369        -1.131474
 C         3.547244        -0.213887         0.206638
 C         3.994164         0.987277        -0.780057
 C         2.937480         0.379092        -1.704029
 O         1.637785         0.753848        -1.226411
 O         2.300239         0.191162         0.809866
 H        -0.443414        -0.587380         1.108202
 H        -0.199337         0.982624         0.916719
 H        -0.715544         0.137004        -0.462256
 H         1.539360        -2.437019        -0.432025
 H         0.994689        -1.485723        -1.751062
 H         3.816107        -1.812584        -1.534142
 H         4.297807        -0.687079         0.857835
 H         3.681366         1.944629        -0.385665
 H         5.047446         0.817383        -1.150644
 H         3.013898         0.595994        -2.796020
