19
Iteration:  3893charge 0 multiplicity 1
 C        -0.093384         0.199288         0.308043
 C         1.314921        -0.103853        -0.224562
 C         1.785807        -1.512218        -0.754912
 C         3.158655        -1.014238        -1.065786
 C         3.659335        -0.168243         0.233686
 C         3.930662         0.987453        -0.695003
 C         2.964875         0.321193        -1.703949
 O         1.560098         0.759391        -1.302887
 O         2.241492         0.107647         0.805998
 H        -0.291127        -0.440097         1.258108
 H        -0.334303         1.283877         0.204205
 H        -0.854360        -0.122961        -0.531980
 H         1.482826        -2.240550         0.012092
 H         1.290427        -1.593429        -1.727016
 H         3.883751        -1.612061        -1.584779
 H         4.323067        -0.705431         0.953594
 H         3.601680         1.979732        -0.397121
 H         4.971533         0.992883        -1.097439
 H         3.058425         0.333529        -2.770323
