19
Iteration:    68charge 0 multiplicity 1
 C        -0.116251         0.179263         0.418789
 C         1.280385        -0.172374        -0.142107
 C         1.719258        -1.472074        -0.914237
 C         3.122015        -1.010142        -1.121227
 C         3.643615        -0.277526         0.165070
 C         3.972436         0.950465        -0.726241
 C         2.889938         0.445444        -1.666909
 O         1.487515         0.768770        -1.272637
 O         2.432462         0.130968         0.846224
 H        -0.380039        -0.290986         1.419675
 H        -0.070843         1.261413         0.469146
 H        -0.778399        -0.111337        -0.354709
 H         1.588951        -2.382698        -0.276459
 H         1.256723        -1.447158        -1.900660
 H         3.830843        -1.662788        -1.666750
 H         4.434015        -0.730951         0.808642
 H         3.965283         2.035266        -0.376127
 H         4.880161         0.860405        -1.245432
 H         3.022130         0.615616        -2.671204
