19
Iteration:  2660
 C        -0.079956         0.203632         0.301367
 C         1.299776        -0.099218        -0.215800
 C         1.740737        -1.458967        -0.767081
 C         3.150558        -1.007154        -1.058720
 C         3.597041        -0.165750         0.199458
 C         4.036405         0.968438        -0.705698
 C         2.885358         0.339135        -1.665755
 O         1.542399         0.673774        -1.305194
 O         2.332675         0.155856         0.771217
 H        -0.284791        -0.463907         1.111327
 H        -0.592615         1.185722         0.329719
 H        -0.817896        -0.142512        -0.430156
 H         1.629501        -2.270745         0.185655
 H         1.100991        -1.859107        -1.559919
 H         3.865336        -1.610768        -1.639257
 H         4.137735        -0.526068         1.062230
 H         3.959235         1.956184        -0.209522
 H         5.069030         0.814473        -1.130223
 H         2.982729         0.543139        -2.695657
