19
Iteration:  4409
 C        -0.164225         0.156349         0.222501
 C         1.293719        -0.073382        -0.199714
 C         1.711787        -1.484864        -0.670436
 C         3.146793        -1.025759        -1.010541
 C         3.620335        -0.206291         0.221985
 C         3.983085         1.023048        -0.752440
 C         2.917795         0.371454        -1.713612
 O         1.635744         0.683796        -1.347551
 O         2.281906         0.133400         0.815440
 H        -0.410888        -0.651606         0.944787
 H        -0.048812         1.082191         0.787849
 H        -0.865165         0.362828        -0.614861
 H         1.608115        -2.174773         0.130267
 H         1.226242        -1.739750        -1.674820
 H         4.044600        -1.648175        -1.353157
 H         4.304401        -0.591954         1.018205
 H         3.830370         2.090321        -0.483269
 H         5.054390         0.812672        -1.072680
 H         3.067611         0.515120        -2.806581
