19
Iteration:  4660
 C        -0.037402         0.147356         0.174020
 C         1.327523        -0.114561        -0.236145
 C         1.691974        -1.456354        -0.667842
 C         3.208359        -1.086247        -0.964576
 C         3.538455        -0.100014         0.209524
 C         3.952029         1.055756        -0.779421
 C         2.896692         0.318315        -1.754446
 O         1.636931         0.752748        -1.294569
 O         2.257291         0.095143         0.841361
 H        -0.372278        -0.659545         0.794416
 H         0.004876         1.068306         0.736316
 H        -0.687934         0.093420        -0.627068
 H         1.636898        -2.171375         0.175804
 H         1.005598        -1.985016        -1.549633
 H         3.945487        -1.798117        -1.260416
 H         4.133116        -0.623022         0.962867
 H         3.809554         2.064598        -0.472234
 H         4.997754         0.926124        -0.997982
 H         2.895325         0.610216        -2.749010
