19
Iteration:  2035
 C        -0.024812         0.164096         0.390425
 C         1.314659        -0.136310        -0.250377
 C         1.675931        -1.442290        -0.759124
 C         3.137438        -0.978791        -1.067914
 C         3.521986        -0.155984         0.239755
 C         3.973849         0.997511        -0.789611
 C         2.995200         0.380152        -1.755600
 O         1.643042         0.736524        -1.336975
 O         2.220236         0.021407         0.870052
 H        -0.217260        -0.619421         1.110369
 H         0.172069         1.163100         0.815965
 H        -0.741771         0.263129        -0.523716
 H         1.703026        -2.263171         0.027810
 H         1.074550        -1.626055        -1.734981
 H         3.830451        -1.745008        -1.433314
 H         4.145185        -0.575521         1.038167
 H         3.705801         2.006790        -0.524709
 H         5.062862         0.989543        -1.062333
 H         2.926588         0.595951        -2.797553
