19
Iteration:  1323charge 0 multiplicity 1
 C        -0.117377         0.084746         0.321561
 C         1.337116        -0.079687        -0.125582
 C         1.671229        -1.437139        -0.803112
 C         3.092357        -0.969307        -1.094988
 C         3.600850        -0.232317         0.133546
 C         4.033835         0.992461        -0.749194
 C         2.913281         0.402093        -1.703823
 O         1.576041         0.723678        -1.323074
 O         2.332368         0.112948         0.892968
 H        -0.349384        -0.764828         1.169291
 H        -0.024977         1.118839         0.914109
 H        -0.807428         0.047560        -0.546206
 H         1.561412        -2.295182        -0.141478
 H         1.002287        -1.474558        -1.641892
 H         3.818161        -1.683120        -1.520880
 H         4.361007        -0.690445         0.785055
 H         4.094084         1.964607        -0.186617
 H         4.896493         0.993175        -1.389895
 H         3.143733         0.528882        -2.762918
