19
Iteration:  2667charge 0 multiplicity 1
 C        -0.083652         0.197893         0.293030
 C         1.331407        -0.126047        -0.206476
 C         1.702910        -1.486823        -0.685605
 C         3.163379        -1.028421        -1.047942
 C         3.555142        -0.209875         0.184650
 C         4.036510         1.005229        -0.707586
 C         2.915826         0.400751        -1.711142
 O         1.563213         0.687310        -1.325418
 O         2.283513         0.142208         0.761459
 H        -0.278122        -0.295348         1.271664
 H        -0.342199         1.237337         0.463272
 H        -0.783242        -0.353148        -0.349695
 H         1.703216        -2.226365        -0.009230
 H         1.117828        -1.786678        -1.551522
 H         3.856041        -1.647660        -1.534024
 H         4.242405        -0.546927         0.984849
 H         3.986970         2.039932        -0.310489
 H         5.040972         0.802974        -1.064011
 H         3.055442         0.730663        -2.771971
