19
Iteration:  4457
 C        -0.095510         0.156556         0.279844
 C         1.269925        -0.140648        -0.203644
 C         1.677508        -1.479128        -0.737567
 C         3.140462        -1.031813        -0.969295
 C         3.509206        -0.161629         0.179884
 C         3.993947         1.023592        -0.769877
 C         2.998154         0.344318        -1.746309
 O         1.649282         0.674367        -1.352859
 O         2.278966         0.184368         0.881395
 H        -0.413100        -0.739033         0.875269
 H        -0.186103         1.175794         0.808972
 H        -0.660712         0.232135        -0.673066
 H         1.768881        -2.262100        -0.006782
 H         1.286678        -1.699035        -1.638848
 H         3.780801        -1.747999        -1.376003
 H         4.266638        -0.400757         0.958810
 H         3.800789         1.982659        -0.228831
 H         5.046208         0.853331        -1.199256
 H         3.138414         0.590039        -2.836112
