19
Iteration:  2216charge 0 multiplicity 1
 C        -0.072381         0.150365         0.347125
 C         1.296122        -0.060624        -0.160451
 C         1.692855        -1.468094        -0.805525
 C         3.108849        -0.993759        -0.992638
 C         3.602945        -0.189242         0.207959
 C         3.955296         0.955564        -0.758620
 C         2.994125         0.400151        -1.781516
 O         1.594902         0.725777        -1.402651
 O         2.313801         0.089389         0.897023
 H        -0.495960        -0.694138         0.905296
 H        -0.293161         1.081288         0.916150
 H        -0.801995         0.222249        -0.434425
 H         1.445013        -2.281625        -0.052802
 H         1.147075        -1.746113        -1.772227
 H         3.966322        -1.637059        -1.090698
 H         4.272085        -0.607687         0.982599
 H         3.810785         2.069157        -0.393182
 H         5.012933         0.796406        -1.185943
 H         3.073265         0.483763        -2.925957
