19
Iteration:  4631charge 0 multiplicity 1
 C        -0.161510         0.155486         0.261987
 C         1.257648        -0.113096        -0.210685
 C         1.737627        -1.508148        -0.706960
 C         3.177615        -1.048806        -1.013404
 C         3.579707        -0.115661         0.158434
 C         3.950856         0.978383        -0.675913
 C         2.949284         0.312948        -1.771205
 O         1.631761         0.718709        -1.418336
 O         2.317890         0.200286         0.903059
 H        -0.429709        -0.772151         0.825872
 H        -0.147447         1.034170         0.982954
 H        -0.797627         0.301037        -0.660667
 H         1.764270        -2.287379         0.026966
 H         1.174794        -1.856402        -1.552521
 H         3.946093        -1.771505        -1.308408
 H         4.205110        -0.642657         0.902827
 H         3.727288         1.956665        -0.174510
 H         5.047457         1.021576        -0.886361
 H         3.027913         0.642660        -2.886392
