19
Iteration:  2343
 C        -0.101434         0.152051         0.334042
 C         1.246734        -0.062429        -0.270398
 C         1.744643        -1.534115        -0.790122
 C         3.159792        -1.024317        -0.938045
 C         3.604600        -0.147277         0.229060
 C         3.993899         0.981188        -0.767371
 C         2.962770         0.349566        -1.733756
 O         1.532678         0.782249        -1.358250
 O         2.335495         0.105346         0.857649
 H        -0.106620        -0.431262         1.357710
 H        -0.316742         1.236380         0.735009
 H        -1.009564        -0.112941        -0.437519
 H         1.497405        -2.449008        -0.199920
 H         1.249901        -1.523864        -1.819796
 H         3.918490        -1.662206        -1.403152
 H         4.239533        -0.668436         1.009950
 H         3.894752         2.011580        -0.385877
 H         4.916250         0.673835        -1.258913
 H         3.100799         0.412103        -2.812794
