19
Iteration:   875
 C        -0.071965         0.162552         0.396373
 C         1.270632        -0.187925        -0.227363
 C         1.666268        -1.532391        -0.833719
 C         3.143479        -1.006271        -1.107314
 C         3.707804        -0.223625         0.160156
 C         3.970721         0.968761        -0.753019
 C         2.815220         0.426078        -1.681686
 O         1.554247         0.819648        -1.230861
 O         2.390163         0.118378         0.837274
 H        -0.521100        -0.463032         1.261886
 H         0.211882         1.070906         0.944341
 H        -0.910349         0.467469        -0.402680
 H         1.524964        -2.468854        -0.318954
 H         1.384834        -1.752466        -1.916932
 H         3.852254        -1.652835        -1.672351
 H         4.454269        -0.813853         0.774640
 H         3.598153         1.961218        -0.287584
 H         4.889144         1.000069        -1.227852
 H         2.987005         0.617877        -2.757932
