19
Iteration:   303
 C        -0.116650         0.085237         0.403876
 C         1.281658        -0.167661        -0.174083
 C         1.701930        -1.421668        -0.768290
 C         3.061324        -0.915951        -1.102899
 C         3.600481        -0.139836         0.167336
 C         4.129111         0.914191        -0.887984
 C         2.946841         0.461049        -1.738789
 O         1.524013         0.798229        -1.206928
 O         2.324677         0.011384         0.856263
 H        -0.478971        -0.715358         1.133763
 H        -0.028807         1.000865         1.045460
 H        -0.927465         0.184962        -0.397852
 H         1.591237        -2.375226        -0.215711
 H         1.124311        -1.507503        -1.756117
 H         3.745087        -1.612752        -1.592630
 H         4.398907        -0.453034         0.799602
 H         4.259461         1.923740        -0.652164
 H         5.129873         0.506273        -1.156682
 H         2.954989         0.572197        -2.845830
