19
Iteration:   888charge 0 multiplicity 1
 C        -0.001012         0.169724         0.454868
 C         1.322677        -0.205895        -0.106390
 C         1.669847        -1.499051        -0.868448
 C         3.053825        -1.001681        -1.122560
 C         3.586021        -0.247596         0.115711
 C         3.938641         1.042276        -0.692881
 C         2.939688         0.437696        -1.672888
 O         1.559463         0.739282        -1.319838
 O         2.385894         0.109594         0.786541
 H        -0.489010        -0.747750         1.003193
 H         0.045421         1.150611         1.006062
 H        -0.616936         0.366161        -0.442909
 H         1.633384        -2.304534        -0.145952
 H         0.934624        -1.566105        -1.703415
 H         3.707419        -1.609959        -1.763711
 H         4.288744        -0.588673         0.919912
 H         3.859251         2.050111        -0.223460
 H         4.983574         1.016440        -1.147357
 H         3.019871         0.563201        -2.722995
