19
Iteration:  1127
 C        -0.041638         0.186588         0.453402
 C         1.323946        -0.131122        -0.183013
 C         1.763426        -1.547767        -0.857321
 C         3.129591        -1.013497        -1.181409
 C         3.519949        -0.209165         0.191102
 C         3.883240         0.902905        -0.752748
 C         2.939817         0.427169        -1.768836
 O         1.635814         0.831704        -1.288575
 O         2.284713         0.122373         0.868974
 H        -0.081940        -0.734456         1.136462
 H        -0.017480         1.137663         1.043482
 H        -0.901575         0.098146        -0.082036
 H         1.882271        -2.420532        -0.149004
 H         1.053991        -1.713857        -1.677024
 H         3.874615        -1.671392        -1.581233
 H         4.207393        -0.605385         1.014722
 H         3.583587         2.048434        -0.428486
 H         5.037385         0.783398        -1.036408
 H         3.019222         0.695213        -2.808349
