19
Iteration:  2120
 C        -0.077080         0.071936         0.356049
 C         1.293252        -0.064160        -0.252029
 C         1.728072        -1.406939        -0.834430
 C         3.180970        -1.044149        -1.006021
 C         3.589153        -0.251564         0.181583
 C         4.011950         0.934807        -0.728422
 C         2.929587         0.300121        -1.701965
 O         1.612488         0.829582        -1.271963
 O         2.241267         0.205296         0.791061
 H        -0.242290        -0.407386         1.338228
 H        -0.286303         1.173616         0.521824
 H        -1.102587        -0.249730        -0.072985
 H         1.643510        -2.227265        -0.176594
 H         1.283915        -1.754646        -1.746040
 H         3.798528        -1.760192        -1.546148
 H         4.310422        -0.633462         0.919805
 H         3.757493         1.902201        -0.319539
 H         5.031104         0.775080        -1.043847
 H         2.884225         0.410833        -2.823045
