19
Iteration:  4998
 C        -0.077562         0.188699         0.179556
 C         1.365876        -0.072466        -0.186424
 C         1.767518        -1.495773        -0.644107
 C         3.143999        -1.066434        -0.980571
 C         3.534074        -0.161461         0.203119
 C         3.909161         0.986035        -0.731902
 C         2.914936         0.362663        -1.736753
 O         1.585504         0.720738        -1.397249
 O         2.330205         0.138191         0.869851
 H        -0.290506        -0.711117         0.810905
 H        -0.403513         1.190897         0.597563
 H        -0.588077         0.124162        -0.840644
 H         1.700512        -2.136273         0.181373
 H         1.180663        -1.776809        -1.421125
 H         3.916606        -1.817439        -1.352466
 H         4.127500        -0.679585         1.021675
 H         3.618502         2.020539        -0.439815
 H         4.962340         0.955669        -0.984647
 H         3.037174         0.454253        -2.833556
