19
Iteration:  4883charge 0 multiplicity 1
 C        -0.029802         0.183295         0.203454
 C         1.354993        -0.070365        -0.234321
 C         1.678496        -1.544000        -0.673973
 C         3.108835        -1.069913        -0.997687
 C         3.556354        -0.084003         0.255699
 C         3.919943         1.015800        -0.768205
 C         2.969491         0.336592        -1.749372
 O         1.604873         0.766386        -1.363066
 O         2.304484         0.092174         0.921473
 H        -0.293967        -0.586586         0.931167
 H        -0.357776         1.158121         0.440215
 H        -0.619759        -0.058486        -0.699117
 H         1.550562        -2.219977         0.259943
 H         1.065927        -1.901723        -1.647320
 H         3.759246        -1.817860        -1.411149
 H         4.381959        -0.552645         0.793745
 H         3.768440         2.054103        -0.465924
 H         4.935109         0.785240        -1.157335
 H         3.168627         0.458445        -2.864738
