19
Iteration:   214charge 0 multiplicity 1
 C         0.014951         0.192679         0.418402
 C         1.355573        -0.152222        -0.172310
 C         1.720937        -1.468026        -0.951807
 C         3.131929        -1.028727        -1.116065
 C         3.571884        -0.294761         0.144597
 C         3.958945         1.011376        -0.740863
 C         2.876732         0.417294        -1.696852
 O         1.519902         0.777057        -1.147012
 O         2.340311         0.102370         0.789686
 H        -0.213091        -0.071336         1.452253
 H         0.070740         1.335359         0.555648
 H        -0.820319        -0.217392        -0.338969
 H         1.591394        -2.481513        -0.435098
 H         1.082508        -1.482309        -1.912742
 H         3.952441        -1.659176        -1.357931
 H         4.214706        -0.644204         0.970984
 H         3.754689         1.885909        -0.225537
 H         4.911329         0.984065        -1.308003
 H         2.728435         0.407983        -2.765440
