19
Iteration:  3748charge 0 multiplicity 1
 C        -0.109069         0.197951         0.284671
 C         1.279963        -0.270223        -0.094114
 C         1.714741        -1.598750        -0.738125
 C         3.157860        -1.025452        -1.086516
 C         3.543167        -0.118196         0.229583
 C         4.041896         1.012123        -0.736314
 C         2.928137         0.498447        -1.731545
 O         1.606384         0.738597        -1.397370
 O         2.276091         0.123570         0.849028
 H        -0.382603        -0.307049         1.218198
 H        -0.141673         1.325987         0.217544
 H        -0.785382        -0.064098        -0.612100
 H         1.501386        -2.368821        -0.086726
 H         1.112653        -1.623298        -1.622722
 H         4.070072        -1.636320        -1.252169
 H         4.262888        -0.458088         0.935447
 H         3.920911         2.015133        -0.255291
 H         5.103498         0.801778        -0.960872
 H         3.142595         0.428224        -2.804179
