19
Iteration:    99
 C         0.076971         0.160887         0.434786
 C         1.305722        -0.122392        -0.208561
 C         1.741359        -1.490758        -0.725387
 C         3.065200        -1.048384        -1.256315
 C         3.475007        -0.191847         0.155679
 C         3.896450         1.036510        -0.687981
 C         2.984991         0.442086        -1.791477
 O         1.586375         0.868498        -1.270869
 O         2.290787        -0.055601         0.850635
 H        -0.167751        -0.505018         1.192491
 H         0.197419         1.108153         0.873127
 H        -0.533718         0.176991        -0.407424
 H         1.730315        -2.100193         0.119811
 H         1.085151        -2.068501        -1.329317
 H         3.695834        -1.827085        -1.704968
 H         4.316213        -0.562044         0.726548
 H         3.608489         2.130938        -0.575906
 H         4.985889         0.822989        -0.809490
 H         3.101824         0.644449        -2.875862
