19
Iteration:   205
 C        -0.026841         0.165939         0.394529
 C         1.297126        -0.096128        -0.163982
 C         1.665095        -1.533651        -0.924972
 C         3.103767        -1.086150        -1.064749
 C         3.623456        -0.226274         0.096109
 C         3.949359         1.034985        -0.751097
 C         2.859427         0.382182        -1.645314
 O         1.610989         0.824869        -1.162907
 O         2.378511         0.088522         0.805729
 H        -0.036250        -0.477456         1.271830
 H        -0.224260         1.258223         0.571307
 H        -0.933540        -0.175321        -0.244599
 H         1.379314        -2.476341        -0.443988
 H         1.283229        -1.463053        -1.984369
 H         3.793909        -1.703122        -1.627421
 H         4.306238        -0.661002         0.801887
 H         3.719488         1.941085        -0.323037
 H         4.918362         1.169048        -1.251202
 H         2.915515         0.543633        -2.797986
