19
Iteration:   939
 C        -0.063359         0.122084         0.392425
 C         1.308488        -0.132383        -0.112200
 C         1.657954        -1.524557        -0.808114
 C         3.130111        -1.028037        -1.079678
 C         3.618053        -0.199275         0.121956
 C         4.050144         0.976495        -0.789266
 C         2.885940         0.433607        -1.742848
 O         1.577535         0.825956        -1.173406
 O         2.320004         0.073605         0.755728
 H        -0.205903        -0.714269         1.014044
 H        -0.155371         1.070492         0.843389
 H        -0.796840         0.059806        -0.465517
 H         1.428399        -2.260515        -0.051801
 H         1.136310        -1.630925        -1.791587
 H         3.802223        -1.673737        -1.659703
 H         4.242761        -0.522989         0.970338
 H         3.910970         2.052153        -0.455073
 H         5.011509         0.922001        -1.150905
 H         2.826076         0.789427        -2.817928
