19
Iteration:  1781
 C        -0.012406         0.200597         0.375907
 C         1.361162        -0.136686        -0.163732
 C         1.625921        -1.500062        -0.774960
 C         3.108151        -1.026573        -1.100646
 C         3.536779        -0.182763         0.176100
 C         3.972720         1.027818        -0.686403
 C         3.002416         0.427395        -1.722153
 O         1.596486         0.660351        -1.335335
 O         2.292041         0.098299         0.772044
 H        -0.278730        -0.438636         1.291109
 H        -0.098258         1.222067         0.814535
 H        -0.830164         0.130121        -0.211893
 H         1.671514        -2.394493        -0.115186
 H         1.116132        -1.518610        -1.739554
 H         3.899370        -1.739867        -1.482913
 H         4.191056        -0.593768         0.945226
 H         3.564823         2.031084        -0.364082
 H         5.021006         0.981551        -1.029433
 H         2.998112         0.720809        -2.813035
