19
Iteration:  2334charge 0 multiplicity 1
 C        -0.110577         0.185328         0.357884
 C         1.273028        -0.045722        -0.228007
 C         1.782344        -1.460073        -0.802025
 C         3.195230        -1.023262        -1.024401
 C         3.502260        -0.177976         0.240158
 C         3.968638         0.980122        -0.785875
 C         2.949885         0.341205        -1.767738
 O         1.616670         0.738699        -1.315777
 O         2.264489         0.067374         0.861530
 H        -0.095426        -0.488348         1.276701
 H        -0.222478         1.303690         0.564325
 H        -0.991987        -0.203190        -0.197630
 H         1.626862        -2.204455         0.038237
 H         1.250461        -1.792727        -1.799708
 H         3.869943        -1.798273        -1.341835
 H         4.353591        -0.436143         0.897404
 H         3.874206         2.084205        -0.641032
 H         5.002446         0.805185        -1.015241
 H         3.108556         0.497935        -2.857509
