19
Iteration:    16
 C        -0.214017         0.100001         0.475266
 C         1.236887        -0.021957        -0.224083
 C         1.741303        -1.524198        -0.748314
 C         3.150419        -1.071598        -1.169768
 C         3.616664        -0.223212         0.121323
 C         4.069522         0.941140        -0.761544
 C         2.962775         0.382969        -1.798461
 O         1.606810         0.994070        -1.178341
 O         2.295227         0.010494         0.736466
 H        -0.016945        -0.719942         1.371387
 H        -0.556943         1.129213         0.808898
 H        -0.970958        -0.351130        -0.195720
 H         1.836501        -2.107562         0.288799
 H         1.125877        -1.934119        -1.587566
 H         3.902958        -1.788892        -1.585273
 H         4.320051        -0.584417         0.936998
 H         3.711487         1.953113        -0.350753
 H         5.122574         1.052568        -0.961781
 H         2.937484         0.547902        -2.858762
