19
Iteration:  4714charge 0 multiplicity 1
 C        -0.028671         0.113369         0.280339
 C         1.326515        -0.110567        -0.278134
 C         1.697348        -1.555409        -0.669198
 C         3.076460        -1.040927        -0.930883
 C         3.560797        -0.130384         0.256723
 C         3.942760         0.975052        -0.694052
 C         2.990353         0.423228        -1.745317
 O         1.599626         0.739767        -1.435045
 O         2.290974         0.176540         0.770192
 H         0.019902        -0.264917         1.292758
 H        -0.332397         1.167980         0.337917
 H        -0.861003        -0.380035        -0.130454
 H         1.751159        -2.266724         0.160623
 H         1.137503        -1.938387        -1.676168
 H         3.631468        -1.624589        -1.612028
 H         4.234911        -0.601886         0.961780
 H         3.751181         1.938340        -0.279917
 H         4.990567         0.754517        -0.847821
 H         3.246405         0.726429        -2.674492
