19
Iteration:  1811charge 0 multiplicity 1
 C        -0.079139         0.204290         0.364316
 C         1.364507        -0.041779        -0.290925
 C         1.770796        -1.529924        -0.686339
 C         3.125633        -0.985423        -1.105758
 C         3.556244        -0.225984         0.219637
 C         3.983011         0.953046        -0.696977
 C         2.889130         0.349453        -1.653350
 O         1.512877         0.839285        -1.377166
 O         2.313100         0.054485         0.781758
 H        -0.154327        -0.687521         1.054160
 H         0.047465         1.107301         0.958962
 H        -0.961309         0.199627        -0.437782
 H         1.871454        -2.215307         0.118990
 H         1.284576        -2.020983        -1.454690
 H         3.920359        -1.585505        -1.703147
 H         4.225584        -0.699207         0.975057
 H         3.677478         1.920747        -0.435452
 H         4.944856         0.840832        -1.072515
 H         3.207639         0.420789        -2.753004
