19
Iteration:  3322charge 0 multiplicity 1
 C        -0.097799         0.191255         0.253338
 C         1.326701        -0.160980        -0.222720
 C         1.718491        -1.587216        -0.750027
 C         3.122174        -1.059008        -1.011888
 C         3.542070        -0.123034         0.217479
 C         4.042341         0.988053        -0.762883
 C         2.934194         0.455119        -1.737437
 O         1.601276         0.725942        -1.289194
 O         2.243064         0.162098         0.853508
 H        -0.028068        -0.218384         1.269104
 H        -0.326100         1.229661         0.125888
 H        -0.706038        -0.475163        -0.407892
 H         1.702865        -2.266784         0.131962
 H         0.979292        -1.830759        -1.574847
 H         3.892948        -1.620431        -1.456743
 H         4.291854        -0.483997         0.911242
 H         4.078348         1.990826        -0.350046
 H         4.999199         0.730874        -1.219977
 H         3.150261         0.548148        -2.750356
