19
Iteration:  2252
 C        -0.071115         0.101680         0.371449
 C         1.353413        -0.127259        -0.285811
 C         1.664178        -1.517699        -0.745202
 C         3.088801        -1.000822        -1.041243
 C         3.467909        -0.169778         0.176187
 C         4.040260         0.950515        -0.757745
 C         2.992237         0.369104        -1.755516
 O         1.666423         0.764998        -1.265765
 O         2.240195         0.205604         0.814939
 H        -0.167660        -0.611530         1.199140
 H        -0.133973         1.114130         0.781159
 H        -0.837204        -0.123546        -0.563500
 H         1.675011        -2.136235         0.140510
 H         1.121960        -1.928858        -1.562751
 H         3.899489        -1.713694        -1.297409
 H         4.162367        -0.589636         0.903860
 H         3.855412         1.936524        -0.330487
 H         5.079077         0.872656        -1.239174
 H         3.016994         0.646737        -2.829759
