19
Iteration:  2326charge 0 multiplicity 1
 C        -0.084768         0.187640         0.381174
 C         1.345878        -0.155330        -0.216292
 C         1.734956        -1.421626        -0.761446
 C         3.152433        -1.037939        -1.115875
 C         3.487336        -0.132256         0.210379
 C         3.926372         0.973020        -0.791196
 C         3.000845         0.347207        -1.768707
 O         1.702898         0.757681        -1.316135
 O         2.190495         0.062027         0.872613
 H        -0.188955        -0.224066         1.343163
 H        -0.176310         1.226666         0.542606
 H        -0.756946        -0.172360        -0.275210
 H         1.841264        -2.156618         0.056896
 H         1.215398        -1.974038        -1.544787
 H         3.953225        -1.711975        -1.432888
 H         4.109790        -0.378603         1.073326
 H         3.708075         2.041417        -0.583191
 H         5.019717         0.851652        -0.943746
 H         2.830012         0.512990        -2.863551
