19
Iteration:  1046charge 0 multiplicity 1
 C        -0.062448         0.111879         0.394046
 C         1.262202        -0.095975        -0.244256
 C         1.662596        -1.535534        -0.785861
 C         3.089863        -1.021292        -1.107717
 C         3.615521        -0.206574         0.175418
 C         3.966341         1.014202        -0.799943
 C         2.955187         0.468342        -1.683665
 O         1.599317         0.795253        -1.241590
 O         2.382792         0.051686         0.842729
 H        -0.360837        -0.474802         1.232236
 H        -0.141975         1.149815         0.734137
 H        -0.881067         0.037877        -0.484628
 H         1.600408        -2.300128        -0.012575
 H         1.003096        -1.854037        -1.624262
 H         3.758957        -1.727840        -1.656572
 H         4.335921        -0.494119         0.914540
 H         3.755567         2.082845        -0.461501
 H         5.024420         0.772155        -1.289010
 H         2.931856         0.696937        -2.807671
