19
Iteration:  1343charge 0 multiplicity 1
 C        -0.077466         0.101135         0.411408
 C         1.317555        -0.088851        -0.233704
 C         1.736525        -1.472233        -0.801135
 C         3.141581        -1.034145        -1.087596
 C         3.607349        -0.216317         0.241208
 C         3.989800         0.872362        -0.744127
 C         2.890792         0.454157        -1.704477
 O         1.520799         0.862111        -1.325663
 O         2.353883         0.118051         0.775037
 H        -0.397205        -0.579396         1.349412
 H        -0.339063         1.126594         0.943106
 H        -0.882837        -0.222221        -0.344595
 H         1.593543        -2.294130        -0.078552
 H         1.415533        -1.857164        -1.791293
 H         3.778943        -1.647211        -1.695882
 H         4.213068        -0.605938         1.107339
 H         3.953801         1.852495        -0.295214
 H         4.996301         0.761634        -0.999105
 H         3.006806         0.656602        -2.832953
