19
Iteration:  2792
 C        -0.083253         0.132725         0.334022
 C         1.375589        -0.105766        -0.165431
 C         1.709674        -1.421507        -0.782527
 C         3.156038        -1.021457        -1.034054
 C         3.555556        -0.207027         0.206740
 C         3.944695         0.943089        -0.755363
 C         2.932570         0.322467        -1.742234
 O         1.607846         0.739175        -1.326073
 O         2.280377         0.201033         0.816043
 H        -0.480244        -0.779362         0.803808
 H        -0.180178         1.039328         1.000504
 H        -0.763444         0.372503        -0.507150
 H         1.783245        -2.247250         0.045007
 H         1.198191        -1.520851        -1.753601
 H         3.929034        -1.884740        -1.283974
 H         4.214133        -0.565736         1.004986
 H         3.571091         1.952515        -0.548703
 H         5.050173         0.817739        -0.990254
 H         2.983859         0.326569        -2.809360
