19
Iteration:  4026charge 0 multiplicity 1
 C        -0.045944         0.143879         0.303275
 C         1.257360        -0.163189        -0.212726
 C         1.643202        -1.461556        -0.731651
 C         3.209479        -1.007971        -1.056447
 C         3.543725        -0.191475         0.215031
 C         3.977890         1.006503        -0.686292
 C         2.976909         0.386460        -1.716920
 O         1.576997         0.674438        -1.330934
 O         2.293220         0.188157         0.774603
 H        -0.563614        -0.565653         0.992079
 H         0.075060         1.035150         0.969602
 H        -0.642988         0.261822        -0.630525
 H         1.707300        -2.208856         0.028705
 H         1.254247        -1.747832        -1.644326
 H         4.072230        -1.626781        -1.460402
 H         4.212465        -0.630470         0.971672
 H         3.750205         2.012453        -0.296930
 H         4.992973         0.930090        -1.055905
 H         3.070401         0.447151        -2.810715
