19
Iteration:  2498
 C        -0.139270         0.144575         0.346258
 C         1.324098        -0.066555        -0.107298
 C         1.743791        -1.444845        -0.759466
 C         3.146793        -1.004678        -1.083849
 C         3.513276        -0.193646         0.185287
 C         3.964168         0.932100        -0.744591
 C         2.970851         0.344025        -1.755790
 O         1.645013         0.691770        -1.291694
 O         2.293629         0.204629         0.805654
 H        -0.328834        -0.384178         1.287751
 H        -0.356443         1.237372         0.132436
 H        -0.675008        -0.411332        -0.404168
 H         1.666438        -2.365220        -0.339330
 H         1.095164        -1.570702        -1.641485
 H         3.921841        -1.718006        -1.339379
 H         4.112480        -0.604737         0.964096
 H         3.976673         1.965312        -0.439499
 H         4.973731         0.719555        -1.058623
 H         2.919812         0.522366        -2.812493
