19
Iteration:  2182
 C        -0.121007         0.264959         0.273213
 C         1.313133        -0.131432        -0.205156
 C         1.768403        -1.639903        -0.729184
 C         3.134299        -1.060219        -1.110750
 C         3.615226        -0.226755         0.222948
 C         3.910631         0.930381        -0.710244
 C         2.898784         0.439987        -1.714993
 O         1.579863         0.818820        -1.272452
 O         2.294735         0.143662         0.766769
 H        -0.442951        -0.478567         1.055349
 H         0.082611         1.251377         0.745859
 H        -0.573194         0.289643        -0.631356
 H         1.960128        -2.262396         0.241440
 H         1.154996        -2.251462        -1.517502
 H         3.975211        -1.664678        -1.425758
 H         4.346440        -0.599979         0.983482
 H         3.771382         2.022024        -0.266258
 H         4.988074         0.984900        -1.065297
 H         3.110230         0.646864        -2.806843
