19
Iteration:  2224charge 0 multiplicity 1
 C        -0.129532         0.123628         0.412038
 C         1.342882        -0.078732        -0.244968
 C         1.711149        -1.490745        -0.779918
 C         3.144262        -1.064121        -0.991955
 C         3.548288        -0.142833         0.233947
 C         3.970090         0.947193        -0.766824
 C         2.956437         0.328536        -1.760533
 O         1.626285         0.869996        -1.423638
 O         2.300376         0.077118         0.881652
 H        -0.441242        -0.728787         1.032027
 H        -0.337887         1.071705         0.928050
 H        -0.753589         0.190592        -0.426981
 H         1.616310        -2.166817         0.101941
 H         1.304319        -1.703646        -1.808299
 H         3.870882        -1.766007        -1.437546
 H         4.294352        -0.412343         1.000461
 H         3.684123         1.938423        -0.381487
 H         4.932822         0.752564        -1.199393
 H         3.089167         0.458935        -2.824460
