19
Iteration:   821
 C        -0.063552         0.067866         0.411220
 C         1.341127        -0.070212        -0.162897
 C         1.630189        -1.451559        -0.832033
 C         3.117647        -1.047920        -1.141515
 C         3.556261        -0.257552         0.122182
 C         4.004131         0.961731        -0.769220
 C         2.925945         0.449614        -1.734670
 O         1.557982         0.829530        -1.223822
 O         2.386944         0.121040         0.843077
 H        -0.046172        -0.568445         1.338168
 H        -0.435125         1.048085         0.625792
 H        -0.878445        -0.300445        -0.286525
 H         1.664093        -2.252354        -0.116775
 H         1.145495        -1.733288        -1.777180
 H         3.759351        -1.804999        -1.617874
 H         4.260606        -0.751311         0.839689
 H         3.797886         1.994327        -0.284396
 H         5.035966         1.025159        -1.050513
 H         3.044936         0.576941        -2.758403
