19
Iteration:  2082
 C        -0.083396         0.175540         0.237816
 C         1.317107        -0.153161        -0.124920
 C         1.717694        -1.464766        -0.726182
 C         3.079944        -0.992382        -1.112261
 C         3.585210        -0.240188         0.111139
 C         4.001262         0.970371        -0.696268
 C         2.937569         0.465616        -1.770505
 O         1.596024         0.720319        -1.304863
 O         2.269504         0.119838         0.912724
 H        -0.160479        -0.385467         1.146695
 H         0.009333         1.205375         0.396980
 H        -0.652141        -0.067003        -0.579700
 H         1.831276        -2.170469         0.156694
 H         0.992603        -1.803906        -1.527553
 H         3.806072        -1.728774        -1.515411
 H         4.179654        -0.772932         0.851531
 H         3.983040         2.009288        -0.212352
 H         5.056538         0.774802        -1.091382
 H         3.042984         0.625825        -2.839522
