19
Iteration:   841charge 0 multiplicity 1
 C        -0.016657         0.069740         0.422274
 C         1.330319        -0.148981        -0.144458
 C         1.643503        -1.479569        -0.713267
 C         3.010121        -0.935039        -1.224984
 C         3.593945        -0.152658         0.145216
 C         3.963424         0.978284        -0.770005
 C         2.936578         0.448603        -1.781810
 O         1.692033         0.831093        -1.304708
 O         2.295133        -0.012150         0.920984
 H        -0.309679        -0.574241         1.237993
 H        -0.083452         1.148243         0.613616
 H        -0.853687        -0.067672        -0.462016
 H         1.747979        -2.304096         0.024402
 H         0.960257        -1.730775        -1.586496
 H         3.777080        -1.620195        -1.608779
 H         4.293826        -0.717000         0.787091
 H         3.971826         2.097363        -0.576774
 H         4.913672         0.807168        -1.069100
 H         2.862244         0.754105        -2.876093
