19
Iteration:  4587charge 0 multiplicity 1
 C        -0.144352         0.141427         0.313869
 C         1.334205        -0.093822        -0.262324
 C         1.775075        -1.529567        -0.726095
 C         3.192944        -1.030098        -0.995206
 C         3.499812        -0.188165         0.254989
 C         3.995040         0.980493        -0.719794
 C         2.971840         0.409891        -1.786377
 O         1.590584         0.740958        -1.394165
 O         2.241006         0.152767         0.842904
 H        -0.357067        -0.493135         1.225720
 H        -0.095794         1.215027         0.763649
 H        -1.054282         0.026819        -0.360547
 H         1.608132        -2.179944         0.076131
 H         1.311178        -1.974013        -1.625381
 H         3.968871        -1.683663        -1.335480
 H         4.266112        -0.463043         1.004724
 H         4.016316         2.064336        -0.423037
 H         5.097547         0.823652        -0.967727
 H         3.042291         0.344893        -2.955724
