19
Iteration:  4535charge 0 multiplicity 1
 C        -0.158050         0.194748         0.202762
 C         1.348861        -0.117701        -0.234950
 C         1.812784        -1.465528        -0.753771
 C         3.169254        -1.043572        -0.959846
 C         3.600005        -0.185267         0.232333
 C         3.949622         0.921215        -0.753451
 C         2.937619         0.379171        -1.689980
 O         1.539936         0.731116        -1.306575
 O         2.275786         0.145199         0.842532
 H        -0.205030        -0.103066         1.268604
 H        -0.448276         1.283336         0.122924
 H        -0.849895        -0.398868        -0.474228
 H         1.673391        -2.274717         0.040865
 H         1.233126        -1.723399        -1.562142
 H         3.932219        -1.715183        -1.362113
 H         4.328643        -0.644891         0.925272
 H         3.894584         2.030498        -0.535168
 H         4.956384         0.933777        -1.226037
 H         3.116658         0.654312        -2.751520
