19
Iteration:  2700charge 0 multiplicity 1
 C        -0.067802         0.210942         0.384091
 C         1.284833        -0.056811        -0.170501
 C         1.740139        -1.515584        -0.742156
 C         3.181516        -1.025220        -1.084067
 C         3.517043        -0.162148         0.240146
 C         3.915018         1.000554        -0.704629
 C         2.968029         0.300107        -1.776869
 O         1.658845         0.792065        -1.402328
 O         2.234783         0.049686         0.820014
 H         0.144975        -0.121717         1.407826
 H        -0.288460         1.263711         0.316866
 H        -0.696678        -0.486669        -0.191519
 H         1.820482        -2.196177        -0.011084
 H         1.150586        -1.796838        -1.596373
 H         3.919451        -1.618731        -1.503204
 H         4.252519        -0.530100         0.988047
 H         3.564666         2.034101        -0.507634
 H         4.971322         0.924893        -0.876187
 H         3.001942         0.298458        -2.929333
