19
Iteration:  4833
 C        -0.039100         0.086232         0.289829
 C         1.334033        -0.060635        -0.234948
 C         1.698670        -1.524036        -0.740950
 C         3.174961        -1.037802        -0.909208
 C         3.494690        -0.152697         0.269316
 C         3.938019         0.959797        -0.726739
 C         2.933420         0.371649        -1.692408
 O         1.586689         0.707790        -1.424054
 O         2.321823         0.229198         0.759200
 H        -0.453074        -0.767394         0.853544
 H         0.068360         1.025562         0.945892
 H        -0.737215         0.464312        -0.453084
 H         1.668397        -2.283697        -0.024933
 H         1.195386        -1.760139        -1.575415
 H         3.945181        -1.686474        -1.350376
 H         4.147965        -0.584497         1.025011
 H         3.809724         1.982237        -0.362675
 H         4.914167         0.727467        -1.189491
 H         3.094314         0.444650        -2.758239
