19
Iteration:  1297
 C        -0.061491         0.183806         0.342815
 C         1.356092        -0.078964        -0.186175
 C         1.765860        -1.600831        -0.759644
 C         3.116968        -1.071177        -1.152770
 C         3.513067        -0.208726         0.176163
 C         3.910613         0.981083        -0.759603
 C         2.912516         0.386883        -1.762012
 O         1.614596         0.910372        -1.191121
 O         2.306421         0.052373         0.820336
 H        -0.407894        -0.662213         0.977051
 H        -0.021788         1.075359         0.966752
 H        -0.700379         0.212640        -0.649433
 H         1.790165        -2.321801         0.084400
 H         1.024572        -1.987638        -1.529938
 H         3.878849        -1.732487        -1.543237
 H         4.317826        -0.544324         0.855976
 H         3.815091         2.014943        -0.473411
 H         4.948726         1.034678        -1.125024
 H         3.060593         0.664998        -2.877234
