19
Iteration:  4314charge 0 multiplicity 1
 C        -0.132561         0.162409         0.204093
 C         1.306824        -0.023753        -0.173639
 C         1.729325        -1.477468        -0.764886
 C         3.202341        -1.064924        -1.021887
 C         3.596803        -0.237348         0.217306
 C         3.943176         0.971872        -0.699070
 C         2.920559         0.317206        -1.727931
 O         1.584837         0.747932        -1.286969
 O         2.327425         0.154836         0.835630
 H        -0.284465        -0.155248         1.287356
 H        -0.228260         1.277105         0.040946
 H        -0.784692        -0.283756        -0.580272
 H         1.877401        -2.227912         0.122482
 H         1.175742        -1.738552        -1.651187
 H         3.725723        -1.828055        -1.664200
 H         4.248925        -0.500854         1.081197
 H         3.564428         1.957777        -0.383812
 H         5.010771         1.015076        -1.030749
 H         2.909494         0.524249        -2.868406
