19
Iteration:  2358
 C        -0.059755         0.084394         0.317766
 C         1.307677        -0.155083        -0.182255
 C         1.648064        -1.492009        -0.800184
 C         3.113054        -1.035844        -1.002568
 C         3.640188        -0.206771         0.255896
 C         4.054900         0.935759        -0.723097
 C         2.861092         0.400490        -1.626520
 O         1.534031         0.767070        -1.388631
 O         2.346310         0.244887         0.778630
 H        -0.439859        -0.632798         1.021759
 H        -0.085458         1.151412         0.507483
 H        -0.706713        -0.070694        -0.472315
 H         1.465244        -2.331875        -0.048198
 H         1.216274        -1.732256        -1.824575
 H         3.790174        -1.706604        -1.538757
 H         4.423134        -0.390020         1.007215
 H         3.923519         1.975925        -0.349432
 H         5.058666         0.957493        -1.139204
 H         3.091627         0.480919        -2.735542
