19
Iteration:  4567charge 0 multiplicity 1
 C        -0.085434         0.143429         0.245524
 C         1.305101        -0.108962        -0.182769
 C         1.721211        -1.462917        -0.744524
 C         3.093305        -1.037130        -1.024151
 C         3.577364        -0.117513         0.205080
 C         3.941616         1.023159        -0.725964
 C         3.008266         0.284792        -1.722868
 O         1.685485         0.730573        -1.336959
 O         2.231189         0.128068         0.833231
 H        -0.267285        -0.454149         1.185524
 H        -0.411713         1.213863         0.444224
 H        -0.839459        -0.408397        -0.416001
 H         1.755124        -2.174847         0.091802
 H         0.999574        -1.697816        -1.391042
 H         3.802589        -1.740027        -1.476169
 H         4.336819        -0.559949         0.880577
 H         3.495439         2.050991        -0.511354
 H         5.031795         1.026041        -1.038456
 H         3.302174         0.568661        -2.778908
