19
Iteration:   272charge 0 multiplicity 1
 C        -0.031322         0.089286         0.392023
 C         1.380532        -0.097025        -0.151136
 C         1.691615        -1.481437        -0.821315
 C         3.047787        -1.040318        -1.165883
 C         3.627470        -0.262203         0.124423
 C         3.895567         0.923137        -0.726728
 C         2.885631         0.389320        -1.708180
 O         1.607614         0.866825        -1.215401
 O         2.358649         0.155713         0.818209
 H        -0.119930        -0.660947         1.233209
 H        -0.118371         1.129048         0.717501
 H        -0.836184        -0.041253        -0.322208
 H         1.593906        -2.391654        -0.259115
 H         1.122632        -1.443440        -1.759578
 H         3.695518        -1.733989        -1.752764
 H         4.385669        -0.527433         0.835182
 H         3.635029         1.833064        -0.185137
 H         4.907593         1.011837        -1.054901
 H         2.916462         0.479577        -2.876554
