19
Iteration:  1478
 C        -0.068950         0.040816         0.425870
 C         1.338175        -0.094915        -0.182084
 C         1.677727        -1.455646        -0.867500
 C         3.111849        -1.081709        -1.112942
 C         3.543551        -0.215300         0.201169
 C         4.009112         1.000497        -0.762602
 C         2.928973         0.374242        -1.707360
 O         1.628091         0.784817        -1.234550
 O         2.312837         0.211543         0.809409
 H        -0.485499        -0.677857         1.198112
 H        -0.125968         1.060165         0.902258
 H        -0.720566         0.189513        -0.528500
 H         1.534902        -2.418278        -0.429670
 H         1.061034        -1.420670        -1.763141
 H         3.823903        -1.791104        -1.629944
 H         4.288630        -0.645973         0.848399
 H         3.716289         1.959723        -0.385511
 H         4.951297         0.801727        -1.056596
 H         3.026194         0.450351        -2.748000
