19
Iteration:   802
 C        -0.062622         0.087581         0.437184
 C         1.327496        -0.158615        -0.166903
 C         1.744338        -1.454315        -0.821638
 C         3.147770        -0.978590        -1.079247
 C         3.647761        -0.286591         0.193750
 C         3.964389         0.881409        -0.727311
 C         2.793403         0.450808        -1.679542
 O         1.549774         0.879250        -1.289672
 O         2.341089         0.095203         0.723669
 H        -0.051423        -0.377877         1.504894
 H        -0.265737         1.166768         0.498516
 H        -0.871166        -0.162693        -0.178346
 H         1.530424        -2.312837        -0.186737
 H         1.079878        -1.368986        -1.694839
 H         3.771314        -1.503220        -1.809976
 H         4.395017        -0.519569         0.979333
 H         3.990635         1.867398        -0.150690
 H         4.930053         0.775057        -1.445469
 H         3.092581         0.604680        -2.800644
