19
Iteration:  1043charge 0 multiplicity 1
 C        -0.064532         0.111572         0.382775
 C         1.261702        -0.112021        -0.225015
 C         1.666355        -1.494086        -0.818151
 C         3.125248        -1.032229        -1.079012
 C         3.610483        -0.223931         0.193630
 C         3.943484         1.020783        -0.818632
 C         2.955386         0.495654        -1.679927
 O         1.579893         0.790196        -1.276617
 O         2.391092         0.042933         0.853899
 H        -0.301952        -0.426817         1.357008
 H        -0.120116         1.171719         0.784830
 H        -0.795434         0.030392        -0.468069
 H         1.549839        -2.286151        -0.037008
 H         0.985962        -1.822183        -1.584799
 H         3.720462        -1.785811        -1.595445
 H         4.374891        -0.575087         0.902315
 H         3.883522         1.997829        -0.529080
 H         4.859648         0.787868        -1.259511
 H         2.940448         0.650398        -2.737947
