19
Iteration:   485charge 0 multiplicity 1
 C        -0.046566         0.186647         0.488675
 C         1.328025        -0.045927        -0.217335
 C         1.725154        -1.486957        -0.842521
 C         3.136986        -1.038991        -1.079656
 C         3.573752        -0.257141         0.189860
 C         3.900274         1.040213        -0.783486
 C         2.905306         0.432908        -1.740106
 O         1.611301         0.854134        -1.324780
 O         2.302793        -0.065118         0.843834
 H        -0.163705        -0.656824         1.132995
 H        -0.020617         1.031097         1.209553
 H        -0.972640         0.147900        -0.198515
 H         1.753146        -2.294463        -0.052680
 H         1.192400        -1.949288        -1.706701
 H         3.699530        -1.691928        -1.717311
 H         4.416859        -0.643849         0.879525
 H         3.743756         2.086376        -0.553836
 H         5.010643         1.069187        -1.073830
 H         3.045371         0.569502        -2.874776
