19
Iteration:  1442charge 0 multiplicity 1
 C        -0.118788         0.095967         0.448569
 C         1.298409        -0.066033        -0.217884
 C         1.779816        -1.394760        -0.732580
 C         3.136286        -1.046239        -1.162674
 C         3.515028        -0.273722         0.141261
 C         3.974418         0.981288        -0.713033
 C         2.998847         0.461132        -1.741906
 O         1.600422         0.782694        -1.332277
 O         2.279382         0.064331         0.841842
 H        -0.324734        -0.841989         1.185284
 H        -0.171497         1.167680         0.934782
 H        -0.896550         0.008146        -0.318310
 H         1.766846        -2.050924         0.177774
 H         1.160640        -1.772253        -1.549855
 H         3.791964        -1.656691        -1.783866
 H         4.082244        -0.685993         0.997554
 H         4.174867         2.045565        -0.508643
 H         4.975785         0.724592        -1.163474
 H         2.961590         0.680042        -2.851519
