19
Iteration:  2853charge 0 multiplicity 1
 C        -0.098577         0.216664         0.266213
 C         1.321118        -0.100588        -0.229557
 C         1.775322        -1.582480        -0.718016
 C         3.100905        -1.069032        -1.114933
 C         3.569204        -0.218597         0.209080
 C         3.909880         0.962268        -0.724340
 C         2.943498         0.409795        -1.724825
 O         1.616708         0.744760        -1.336635
 O         2.317363         0.189322         0.899354
 H        -0.288662        -0.514163         1.062083
 H        -0.191678         1.226330         0.724071
 H        -0.822588         0.046437        -0.511909
 H         1.661241        -2.220663         0.094195
 H         1.100100        -1.984187        -1.484230
 H         3.811760        -1.811794        -1.459167
 H         4.459557        -0.453688         0.825784
 H         3.634220         1.992061        -0.541134
 H         4.961980         0.918067        -0.915903
 H         3.080558         0.701408        -2.825125
