19
Iteration:  1395
 C        -0.116991         0.204654         0.318630
 C         1.343972        -0.137675        -0.217971
 C         1.688305        -1.379657        -0.795002
 C         3.214078        -1.058130        -1.103276
 C         3.669405        -0.189601         0.169472
 C         3.842913         0.971922        -0.715927
 C         2.867079         0.359181        -1.671776
 O         1.564152         0.818686        -1.265311
 O         2.365089        -0.013542         0.847380
 H        -0.228726        -0.304687         1.240206
 H        -0.087831         1.266585         0.409294
 H        -0.923496        -0.132630        -0.370706
 H         1.645350        -2.274734        -0.148304
 H         1.147803        -1.511974        -1.811456
 H         3.859441        -1.805487        -1.513851
 H         4.443850        -0.557739         0.887844
 H         3.805635         2.014363        -0.358222
 H         4.981897         0.918167        -1.110366
 H         2.989241         0.515468        -2.807554
