19
Iteration:  3426
 C        -0.126526         0.103801         0.262626
 C         1.319340        -0.096713        -0.218169
 C         1.704558        -1.450538        -0.666865
 C         3.144860        -1.016849        -1.053296
 C         3.558232        -0.134599         0.225499
 C         4.035015         0.981188        -0.771058
 C         2.946525         0.366256        -1.694352
 O         1.578940         0.747931        -1.306805
 O         2.268557         0.093823         0.803717
 H        -0.536983        -0.777066         0.718807
 H        -0.027799         1.046210         0.833723
 H        -0.572146         0.204268        -0.774868
 H         1.702600        -2.167717         0.176656
 H         1.206788        -1.967464        -1.462006
 H         3.953590        -1.674225        -1.384710
 H         4.261258        -0.302037         1.060265
 H         3.933345         2.096755        -0.589623
 H         5.115818         0.747679        -1.125587
 H         3.021472         0.556065        -2.878426
