19
Iteration:  2058
 C        -0.169122         0.247743         0.316267
 C         1.305728        -0.067463        -0.198001
 C         1.745687        -1.594222        -0.855017
 C         3.163842        -1.130224        -0.972731
 C         3.629693        -0.181093         0.187012
 C         3.873450         1.005407        -0.733149
 C         2.897452         0.361862        -1.686472
 O         1.598400         0.821457        -1.249556
 O         2.395966         0.081972         0.803535
 H        -0.352360        -0.448264         1.085134
 H        -0.045599         1.263031         0.542603
 H        -0.686916         0.164995        -0.701576
 H         1.550804        -2.515060        -0.157403
 H         1.243287        -1.617638        -1.928350
 H         3.868618        -1.643371        -1.664083
 H         4.269786        -0.527550         1.006329
 H         3.620080         2.017024        -0.453629
 H         4.981870         0.926262        -1.011453
 H         2.889041         0.481223        -2.733673
