19
Iteration:  3182charge 0 multiplicity 1
 C        -0.080140         0.121799         0.276827
 C         1.333666        -0.105925        -0.194499
 C         1.705859        -1.518120        -0.722811
 C         3.180281        -1.037671        -0.930747
 C         3.578612        -0.132235         0.146432
 C         3.990073         0.970432        -0.739865
 C         2.929802         0.348660        -1.799749
 O         1.589143         0.785340        -1.320831
 O         2.267980         0.141498         0.831845
 H        -0.407934        -0.609098         0.989659
 H        -0.255390         1.066475         0.636022
 H        -0.796945         0.017521        -0.540534
 H         1.603511        -2.297625         0.014283
 H         1.077518        -1.702514        -1.592167
 H         3.951935        -1.655419        -1.252484
 H         4.027618        -0.576603         1.000454
 H         3.921099         1.991931        -0.346505
 H         4.991133         0.799979        -1.195301
 H         3.123542         0.635672        -2.781579
