19
Iteration:  3296charge 0 multiplicity 1
 C        -0.195661         0.102833         0.259804
 C         1.304180        -0.107772        -0.198338
 C         1.759968        -1.417211        -0.721468
 C         3.166704        -1.098465        -1.001725
 C         3.577760        -0.155947         0.217538
 C         3.959616         0.934854        -0.745023
 C         2.944107         0.347585        -1.747131
 O         1.593057         0.776696        -1.331548
 O         2.327431         0.177645         0.858784
 H        -0.249308        -0.350148         1.260355
 H        -0.365872         1.224870         0.271018
 H        -0.732882        -0.406630        -0.554675
 H         1.640442        -2.127249         0.078512
 H         1.116368        -1.516830        -1.560609
 H         3.816291        -1.640058        -1.771879
 H         4.367644        -0.490576         0.926267
 H         3.773666         1.877515        -0.224742
 H         4.956351         0.853712        -1.173010
 H         3.355129         0.298457        -2.911365
