19
Iteration:   136
 C        -0.116680         0.140832         0.442078
 C         1.296655        -0.171903        -0.178163
 C         1.687813        -1.435464        -0.858218
 C         3.156780        -1.059996        -1.069676
 C         3.670523        -0.219303         0.100115
 C         4.052039         1.017534        -0.750180
 C         2.905428         0.391539        -1.630081
 O         1.471944         0.797459        -1.204693
 O         2.389481         0.106579         0.723074
 H        -0.655136        -0.771381         0.903340
 H        -0.185608         1.069179         1.073857
 H        -0.804682         0.356433        -0.428835
 H         1.534753        -2.394660        -0.219920
 H         1.263920        -1.408079        -1.886728
 H         3.784744        -1.779275        -1.626254
 H         4.250921        -0.805840         0.859159
 H         3.886601         2.020262        -0.358207
 H         5.060770         0.975083        -1.087582
 H         2.859870         0.576295        -2.655651
