19
Iteration:  1795
 C        -0.039314         0.192006         0.439240
 C         1.258250        -0.115218        -0.269376
 C         1.763913        -1.494833        -0.731225
 C         3.154997        -1.040997        -1.092323
 C         3.575993        -0.247663         0.185013
 C         3.888186         0.956952        -0.666920
 C         2.935316         0.465093        -1.803780
 O         1.608137         0.774995        -1.432470
 O         2.287631         0.090982         0.868526
 H        -0.176348        -0.571216         1.197644
 H         0.114577         1.229842         0.838832
 H        -0.881083         0.181901        -0.369000
 H         1.639000        -2.172203         0.216112
 H         1.069074        -2.058261        -1.505754
 H         3.803980        -1.786405        -1.468430
 H         4.288168        -0.685548         0.895101
 H         3.807432         1.963017        -0.114554
 H         5.005166         0.971578        -1.042198
 H         3.153984         0.748623        -2.824445
