19
Iteration:   390
 C         0.031279         0.169276         0.434738
 C         1.265907        -0.166628        -0.207267
 C         1.795383        -1.519494        -0.864577
 C         3.119002        -0.978284        -1.195890
 C         3.527627        -0.205065         0.150408
 C         3.943193         0.968121        -0.781274
 C         2.858044         0.401170        -1.746359
 O         1.632093         0.846105        -1.148613
 O         2.244780         0.044404         0.835869
 H         0.045660        -0.442208         1.427948
 H         0.175172         1.272636         0.547963
 H        -0.874100         0.059695        -0.189125
 H         1.780849        -2.051291         0.124793
 H         1.098973        -1.923878        -1.707500
 H         3.934599        -1.550381        -1.724978
 H         4.160687        -0.648260         0.882112
 H         3.872994         2.002621        -0.534801
 H         5.075372         0.716321        -0.947128
 H         2.816784         0.547700        -2.815891
