19
Iteration:  2245
 C        -0.042233         0.082327         0.322742
 C         1.309587        -0.098214        -0.276053
 C         1.686025        -1.490596        -0.708233
 C         3.100911        -1.034457        -1.078030
 C         3.532948        -0.180582         0.197399
 C         4.003111         0.976389        -0.763179
 C         3.008526         0.337562        -1.746296
 O         1.679764         0.801231        -1.223269
 O         2.205148         0.181190         0.752919
 H        -0.079470        -0.684167         1.121578
 H        -0.128178         1.064603         0.813352
 H        -1.005542         0.050436        -0.170356
 H         1.714778        -2.080606         0.222649
 H         1.134158        -1.781500        -1.621649
 H         3.898414        -1.729814        -1.375976
 H         4.100859        -0.536847         1.070126
 H         3.703895         1.975812        -0.507478
 H         4.976635         0.709740        -1.076349
 H         2.947465         0.449925        -2.800314
