19
Iteration:  2093charge 0 multiplicity 1
 C        -0.032569         0.114377         0.295912
 C         1.346327        -0.076828        -0.212087
 C         1.667622        -1.535745        -0.634326
 C         3.055267        -1.002102        -1.097715
 C         3.498195        -0.199939         0.147733
 C         4.048887         0.977060        -0.706859
 C         2.959610         0.516112        -1.740161
 O         1.631094         0.774424        -1.400644
 O         2.277103         0.061781         0.884149
 H        -0.385766        -0.351868         1.197233
 H        -0.325798         1.104611         0.498253
 H        -0.790110        -0.170918        -0.329321
 H         1.760983        -2.330377         0.191813
 H         1.051729        -2.015236        -1.471513
 H         3.761838        -1.703987        -1.577420
 H         4.260921        -0.683108         0.765790
 H         4.148189         2.066744        -0.352632
 H         5.091562         0.586766        -0.989794
 H         2.981621         0.866652        -2.765380
