19
Iteration:  4063
 C        -0.079339         0.130002         0.329200
 C         1.329610        -0.124671        -0.228178
 C         1.717297        -1.440945        -0.730983
 C         3.167628        -0.995974        -1.015938
 C         3.552462        -0.193484         0.234006
 C         3.943552         1.002366        -0.740019
 C         3.010415         0.363213        -1.731228
 O         1.585408         0.782171        -1.353633
 O         2.268793         0.083247         0.783165
 H        -0.284850        -0.608668         1.066355
 H        -0.097948         1.172988         0.647985
 H        -0.892307         0.141517        -0.413482
 H         1.507478        -2.141323         0.150346
 H         1.079913        -1.990223        -1.532118
 H         3.903336        -1.703133        -1.416294
 H         4.230946        -0.421262         1.083037
 H         3.734689         2.032024        -0.522488
 H         4.993053         0.893977        -0.970785
 H         3.066791         0.154407        -2.835765
