19
Iteration:  2684charge 0 multiplicity 1
 C        -0.034775         0.131733         0.357553
 C         1.300481        -0.206087        -0.184099
 C         1.763959        -1.557084        -0.740136
 C         3.071680        -1.031045        -1.058364
 C         3.527448        -0.172705         0.196368
 C         3.913889         0.946420        -0.737655
 C         2.987001         0.448091        -1.791289
 O         1.660349         0.846973        -1.449317
 O         2.264130         0.151744         0.922548
 H        -0.180482        -0.116372         1.426146
 H        -0.156774         1.247829         0.131149
 H        -1.019321        -0.098537        -0.123576
 H         1.673622        -2.380762         0.224404
 H         1.118568        -2.055052        -1.533508
 H         3.894250        -1.831784        -1.357415
 H         4.185165        -0.611264         0.957299
 H         3.700667         1.933054        -0.342133
 H         4.990327         0.919290        -1.077735
 H         3.253436         0.567030        -2.853962
