19
Iteration:   807charge 0 multiplicity 1
 C        -0.062162         0.078338         0.477197
 C         1.302600        -0.075587        -0.178587
 C         1.771432        -1.423288        -0.829082
 C         3.115718        -0.994081        -1.095853
 C         3.663722        -0.289827         0.158424
 C         3.951663         0.917046        -0.699176
 C         2.841631         0.377957        -1.663878
 O         1.562042         0.862363        -1.256210
 O         2.347455         0.103357         0.699577
 H        -0.206994        -0.400096         1.381898
 H        -0.270139         1.182017         0.557302
 H        -0.737798        -0.394216        -0.423611
 H         1.466960        -2.291163        -0.184254
 H         1.114854        -1.434252        -1.712507
 H         3.853732        -1.537838        -1.693236
 H         4.341037        -0.680580         0.917657
 H         3.861468         1.891947        -0.306142
 H         4.747152         0.707532        -1.309101
 H         2.872572         0.681633        -2.812649
