19
Iteration:  3280
 C        -0.087177         0.101715         0.266643
 C         1.341108        -0.048661        -0.223641
 C         1.646043        -1.539262        -0.703064
 C         3.113051        -1.081109        -1.070525
 C         3.580539        -0.166952         0.208826
 C         3.933704         0.995052        -0.736308
 C         2.994063         0.358267        -1.741732
 O         1.681958         0.778874        -1.330149
 O         2.271779         0.194497         0.844985
 H        -0.132580        -0.552556         1.148069
 H        -0.351599         1.110994         0.539675
 H        -0.813301        -0.279155        -0.460061
 H         1.663272        -2.290170         0.137263
 H         1.151985        -1.999335        -1.624580
 H         3.821736        -1.846438        -1.225425
 H         4.220976        -0.501880         1.036479
 H         3.651000         2.043962        -0.502687
 H         5.015259         0.949788        -1.029350
 H         2.867796         0.628818        -2.726502
