19
Iteration:  1938
 C        -0.081663         0.215259         0.377338
 C         1.357528        -0.123065        -0.279654
 C         1.668688        -1.550269        -0.775856
 C         3.091887        -1.086342        -1.041159
 C         3.566720        -0.094792         0.199872
 C         3.962794         0.991629        -0.746886
 C         2.931713         0.392575        -1.727417
 O         1.641467         0.800972        -1.274643
 O         2.286374         0.010873         0.812535
 H        -0.188955        -0.281751         1.266987
 H        -0.202537         1.237820         0.496024
 H        -0.851534        -0.145915        -0.351340
 H         1.780544        -2.186257         0.163433
 H         1.238969        -1.975509        -1.761028
 H         3.911548        -1.629605        -1.514078
 H         4.335016        -0.388269         0.927687
 H         3.703695         2.049797        -0.561294
 H         5.094036         1.001238        -1.058241
 H         2.966826         0.645670        -2.753189
