19
Iteration:  3460charge 0 multiplicity 1
 C        -0.144662         0.106135         0.344551
 C         1.282557        -0.118632        -0.270174
 C         1.741296        -1.477302        -0.805110
 C         3.119511        -1.085331        -1.079746
 C         3.598945        -0.170326         0.263552
 C         3.922217         0.957629        -0.690580
 C         3.027452         0.329746        -1.698563
 O         1.611000         0.748317        -1.347086
 O         2.334433         0.218292         0.845557
 H        -0.535432        -0.549202         1.107674
 H        -0.270362         1.126592         0.707994
 H        -0.887874         0.108320        -0.546453
 H         1.649187        -2.097929         0.065828
 H         1.167354        -1.737024        -1.628353
 H         3.944804        -1.613352        -1.358569
 H         4.402858        -0.466962         0.943892
 H         3.481941         1.943141        -0.608354
 H         5.004488         1.047563        -1.053447
 H         2.959746         0.529299        -2.836967
