19
Iteration:   555
 C         0.017665         0.060294         0.360289
 C         1.281405        -0.065414        -0.319244
 C         1.680972        -1.415554        -0.745723
 C         3.070601        -1.015319        -1.091290
 C         3.592033        -0.246440         0.196538
 C         4.002945         0.929059        -0.825338
 C         2.872503         0.450205        -1.705991
 O         1.569567         0.931522        -1.193596
 O         2.364602        -0.020798         0.830301
 H        -0.226402        -0.681923         1.164872
 H        -0.097504         1.025154         0.832601
 H        -0.763331        -0.139183        -0.299678
 H         1.534055        -2.107976         0.099040
 H         1.247690        -1.874598        -1.651343
 H         3.663698        -1.704573        -1.734494
 H         4.173450        -0.543122         1.013516
 H         4.045749         1.999179        -0.461443
 H         5.017820         0.820579        -1.333707
 H         2.848153         0.538067        -2.710417
