19
Iteration:  2101
 C        -0.080127         0.131309         0.366707
 C         1.301521        -0.069948        -0.253337
 C         1.694703        -1.535349        -0.649850
 C         3.067007        -1.019307        -1.132767
 C         3.516840        -0.179448         0.255972
 C         4.055609         0.944074        -0.724466
 C         2.979351         0.486906        -1.734131
 O         1.610920         0.830010        -1.381882
 O         2.301707         0.049134         0.805947
 H        -0.152007        -0.542041         1.227485
 H        -0.405821         1.162618         0.481577
 H        -0.865264        -0.376701        -0.421744
 H         1.647105        -2.210807         0.279198
 H         1.043542        -1.990578        -1.499798
 H         3.871910        -1.671370        -1.534446
 H         4.250426        -0.543041         0.996988
 H         3.980081         1.940431        -0.399288
 H         4.981281         0.586828        -1.185459
 H         3.234112         0.745822        -2.735218
