19
Iteration:  3152charge 0 multiplicity 1
 C        -0.135841         0.136558         0.308308
 C         1.310201        -0.100112        -0.237272
 C         1.720035        -1.542424        -0.805225
 C         3.163210        -1.053504        -1.104037
 C         3.557229        -0.105275         0.255914
 C         4.001427         0.936983        -0.729136
 C         2.990719         0.344631        -1.730170
 O         1.586488         0.713831        -1.310903
 O         2.282989         0.232205         0.873739
 H        -0.093503        -0.321987         1.326851
 H        -0.369325         1.198882         0.473850
 H        -0.912582        -0.379833        -0.277288
 H         1.743019        -2.346518        -0.107491
 H         1.010805        -1.692690        -1.557165
 H         3.961089        -1.653272        -1.459983
 H         4.057787        -0.553922         1.114640
 H         3.946725         2.035046        -0.538021
 H         4.934608         0.639016        -1.152745
 H         3.132809         0.799325        -2.793390
