19
Iteration:  1024charge 0 multiplicity 1
 C         0.024792         0.159537         0.427585
 C         1.355196        -0.073090        -0.115360
 C         1.759234        -1.432304        -0.820688
 C         3.119651        -0.969830        -1.094309
 C         3.604246        -0.199740         0.153143
 C         3.989365         0.937306        -0.684739
 C         2.822084         0.386678        -1.794762
 O         1.503996         0.765770        -1.379901
 O         2.300515         0.016231         0.884713
 H        -0.183531        -0.364401         1.344310
 H        -0.170548         1.212134         0.670123
 H        -0.856778        -0.164397        -0.310556
 H         1.531972        -2.391710        -0.349309
 H         1.302354        -1.375872        -1.823013
 H         3.931243        -1.581113        -1.533589
 H         4.237868        -0.566521         0.921528
 H         3.841499         1.961843        -0.189957
 H         5.074170         0.702225        -1.200350
 H         2.929053         0.611351        -2.919303
