19
Iteration:  3026
 C        -0.120692         0.107909         0.294736
 C         1.333245        -0.106008        -0.263935
 C         1.665269        -1.491996        -0.733059
 C         3.045561        -1.116840        -1.081105
 C         3.631549        -0.098399         0.257663
 C         3.985210         0.979147        -0.686628
 C         2.962531         0.381992        -1.699775
 O         1.584591         0.712606        -1.359011
 O         2.346856         0.237134         0.833230
 H        -0.281651        -0.886804         0.680693
 H        -0.237096         0.941391         1.051300
 H        -0.779465         0.228741        -0.543836
 H         1.658491        -2.385544        -0.036154
 H         0.968885        -1.594456        -1.673015
 H         3.853937        -1.805956        -1.433947
 H         4.360211        -0.573807         0.951509
 H         3.863018         2.003508        -0.264310
 H         5.037782         0.862518        -1.085031
 H         3.226586         0.411545        -2.754614
