19
Iteration:   240charge 0 multiplicity 1
 C        -0.059522         0.243551         0.456285
 C         1.305975        -0.109168        -0.194564
 C         1.735322        -1.555666        -0.752261
 C         3.048891        -0.967007        -1.225123
 C         3.575713        -0.240249         0.097443
 C         3.981278         1.012021        -0.694256
 C         2.919606         0.554624        -1.693827
 O         1.587540         0.764107        -1.395446
 O         2.312620        -0.068664         0.910115
 H         0.089983        -0.268190         1.439037
 H        -0.163727         1.271344         0.755467
 H        -0.902976        -0.151434        -0.010834
 H         1.876421        -2.322080        -0.034222
 H         1.151313        -1.925455        -1.567639
 H         3.781502        -1.639223        -1.746464
 H         4.316552        -0.585179         0.802093
 H         4.069472         2.014585        -0.195088
 H         4.860828         0.687628        -1.226069
 H         3.033259         0.791778        -2.843254
