19
Iteration:  3479charge 0 multiplicity 1
 C        -0.057197         0.184861         0.294164
 C         1.322755        -0.122117        -0.218932
 C         1.715141        -1.503244        -0.673164
 C         3.132612        -1.009461        -0.999214
 C         3.532016        -0.191947         0.184270
 C         3.995016         1.054200        -0.696274
 C         2.958948         0.399006        -1.747996
 O         1.620042         0.742336        -1.379485
 O         2.201889         0.077651         0.785582
 H        -0.084302        -0.430644         1.170327
 H        -0.013909         1.154177         0.728877
 H        -0.777384        -0.230549        -0.349814
 H         1.760446        -2.407631        -0.018681
 H         1.324657        -1.912217        -1.627900
 H         3.900656        -1.686331        -1.419987
 H         4.183834        -0.396918         1.046409
 H         3.942926         2.054655        -0.216653
 H         5.005827         0.789760        -1.174320
 H         3.015041         0.473592        -2.819196
