19
Iteration:  1837
 C        -0.178656         0.121490         0.303786
 C         1.403522        -0.172219        -0.119443
 C         1.650547        -1.462873        -0.819115
 C         3.132080        -1.105812        -1.071660
 C         3.521795        -0.157626         0.109166
 C         4.006670         0.974325        -0.800714
 C         2.921620         0.462297        -1.713744
 O         1.649929         0.711590        -1.277038
 O         2.319860         0.212773         0.939585
 H        -0.583210        -0.626004         0.984688
 H         0.038315         1.096955         0.763289
 H        -0.681611         0.176707        -0.533342
 H         1.574724        -2.412597        -0.231114
 H         1.132561        -1.729747        -1.787781
 H         3.804316        -1.840837        -1.415013
 H         4.310122        -0.426629         0.792740
 H         3.888444         2.022879        -0.384208
 H         5.043751         0.698030        -1.136438
 H         3.072023         0.600202        -2.770932
