19
Iteration:   106
 C         0.087259         0.143173         0.421887
 C         1.363548        -0.171467        -0.186678
 C         1.717027        -1.444704        -0.790741
 C         3.062674        -1.035766        -1.240308
 C         3.473521        -0.169264         0.193327
 C         3.833666         1.010201        -0.723181
 C         2.961576         0.425254        -1.765188
 O         1.605791         0.872428        -1.328441
 O         2.336760        -0.031873         0.917862
 H        -0.257552        -0.655948         1.102837
 H         0.137550         1.154582         0.952246
 H        -0.763099         0.317673        -0.397806
 H         1.884194        -2.179882         0.068661
 H         0.880377        -1.925367        -1.393199
 H         3.725754        -1.822822        -1.543501
 H         4.249484        -0.676827         0.770226
 H         3.637176         2.019590        -0.554540
 H         4.962170         0.750084        -0.903232
 H         3.078918         0.742281        -2.907419
