19
Iteration:  4115charge 0 multiplicity 1
 C        -0.112112         0.146844         0.231178
 C         1.312860        -0.124142        -0.235083
 C         1.720727        -1.438346        -0.671179
 C         3.159209        -1.008774        -1.034215
 C         3.571532        -0.196661         0.168363
 C         4.000294         0.955992        -0.719473
 C         2.917319         0.421548        -1.708759
 O         1.584496         0.735747        -1.333985
 O         2.317777         0.132517         0.862577
 H        -0.211634        -0.253915         1.226329
 H        -0.329498         1.225016         0.294967
 H        -0.681306        -0.499151        -0.478787
 H         1.452903        -2.330266        -0.074957
 H         1.389067        -1.790544        -1.569688
 H         3.854528        -1.852762        -1.337614
 H         4.182960        -0.627262         0.973071
 H         3.790910         1.954095        -0.326131
 H         4.955659         0.951991        -1.189137
 H         2.929972         0.517838        -2.808543
