19
Iteration:  1431
 C        -0.124257         0.134443         0.357956
 C         1.259006        -0.170045        -0.103319
 C         1.738718        -1.475254        -0.756038
 C         3.137317        -0.951165        -1.242917
 C         3.541025        -0.202300         0.144528
 C         4.005186         0.958194        -0.696248
 C         2.963897         0.425569        -1.777364
 O         1.620144         0.782794        -1.298425
 O         2.299670         0.101475         0.854486
 H        -0.329238        -0.471756         1.373508
 H        -0.101056         1.206116         0.850614
 H        -0.945023         0.070972        -0.344723
 H         1.879185        -2.267177         0.044228
 H         1.043115        -1.931319        -1.467717
 H         3.780832        -1.725583        -1.672988
 H         4.309844        -0.701515         0.779212
 H         3.820251         1.953169        -0.250613
 H         5.021024         0.645582        -0.936752
 H         3.159345         0.703600        -2.859223
