19
Iteration:  2461
 C        -0.037714         0.171921         0.315574
 C         1.299583        -0.069799        -0.321311
 C         1.707686        -1.505323        -0.641974
 C         3.134098        -1.045924        -0.970842
 C         3.501269        -0.198438         0.180548
 C         3.973924         1.005738        -0.710100
 C         2.929378         0.432432        -1.735753
 O         1.598883         0.733395        -1.365541
 O         2.309872         0.066656         0.770115
 H        -0.089802        -0.227122         1.308443
 H        -0.229480         1.123604         0.719986
 H        -0.889004        -0.091215        -0.361848
 H         1.759097        -1.974062         0.329424
 H         1.230217        -1.858275        -1.539480
 H         3.877970        -1.684848        -1.446149
 H         4.324815        -0.736014         0.718055
 H         3.755209         1.997954        -0.244556
 H         5.003215         0.752626        -1.076919
 H         3.222494         0.668260        -2.745435
