19
Iteration:  4911
 C        -0.129153         0.193377         0.277999
 C         1.317642        -0.120717        -0.170139
 C         1.740689        -1.480024        -0.720584
 C         3.192810        -1.030443        -1.012986
 C         3.579976        -0.212675         0.191764
 C         3.901902         0.974560        -0.686884
 C         3.007412         0.306233        -1.724623
 O         1.607449         0.717285        -1.342546
 O         2.292576         0.225873         0.771479
 H        -0.465293        -0.104429         1.301373
 H        -0.488244         1.265304         0.236158
 H        -0.759457        -0.297309        -0.499523
 H         1.576151        -2.193896         0.027654
 H         1.192638        -1.754292        -1.544344
 H         3.878561        -1.835078        -1.431517
 H         4.270495        -0.860378         0.770023
 H         3.520243         1.935748        -0.256712
 H         4.934356         1.048520        -1.031014
 H         3.215898         0.405228        -2.754867
