19
Iteration:  1321charge 0 multiplicity 1
 C        -0.099308         0.084266         0.315844
 C         1.348357        -0.096954        -0.130453
 C         1.656931        -1.421629        -0.788803
 C         3.079847        -0.971258        -1.112325
 C         3.596567        -0.208571         0.133424
 C         4.027171         0.992958        -0.754582
 C         2.917698         0.406584        -1.704427
 O         1.592084         0.707308        -1.307154
 O         2.331099         0.112238         0.892895
 H        -0.397362        -0.723518         1.150673
 H        -0.029321         1.082432         0.926078
 H        -0.849880         0.055875        -0.575472
 H         1.550877        -2.292778        -0.131674
 H         0.990361        -1.518014        -1.675625
 H         3.769759        -1.666657        -1.539222
 H         4.347969        -0.664903         0.825037
 H         4.076252         1.897906        -0.176512
 H         4.912480         0.998497        -1.318318
 H         3.137712         0.554727        -2.822823
