19
Iteration:  3383
 C        -0.029428         0.173091         0.281795
 C         1.327535        -0.168633        -0.175981
 C         1.729911        -1.457855        -0.783699
 C         3.140731        -1.050337        -1.014851
 C         3.566444        -0.122571         0.254079
 C         3.905123         0.993604        -0.698600
 C         3.027209         0.346170        -1.720010
 O         1.567750         0.706360        -1.352741
 O         2.285645         0.160623         0.781257
 H        -0.477647        -0.453953         1.061836
 H        -0.171313         1.160074         0.732181
 H        -0.787667         0.053010        -0.531692
 H         1.754658        -2.225753        -0.022869
 H         1.004122        -1.699291        -1.484015
 H         3.795332        -1.771381        -1.489370
 H         4.205916        -0.555785         1.029114
 H         3.711978         2.002786        -0.303200
 H         4.924752         0.899221        -1.153570
 H         2.985123         0.418734        -2.873803
