19
Iteration:  4525charge 0 multiplicity 1
 C        -0.183614         0.166323         0.243619
 C         1.288730        -0.100334        -0.164296
 C         1.767348        -1.493304        -0.736154
 C         3.160358        -0.981056        -1.075153
 C         3.609507        -0.154695         0.218074
 C         4.015313         0.957251        -0.723290
 C         2.933327         0.396176        -1.677056
 O         1.625286         0.694796        -1.358627
 O         2.241750         0.133638         0.824727
 H        -0.325602        -0.057042         1.302109
 H        -0.239631         1.246926         0.126903
 H        -1.004996        -0.316505        -0.328363
 H         1.931323        -2.234519         0.146063
 H         1.312615        -1.891440        -1.627822
 H         3.874462        -1.692563        -1.534219
 H         4.222640        -0.361003         1.108205
 H         3.960471         1.991276        -0.309577
 H         4.946305         0.547060        -1.102345
 H         2.963381         0.291121        -2.733835
