19
Iteration:  4062charge 0 multiplicity 1
 C        -0.070428         0.128943         0.337980
 C         1.319613        -0.117475        -0.220144
 C         1.709186        -1.443818        -0.733280
 C         3.173514        -1.002002        -1.029322
 C         3.553579        -0.189797         0.241516
 C         3.943245         0.999670        -0.735275
 C         3.008469         0.359024        -1.730573
 O         1.585801         0.785441        -1.364603
 O         2.269765         0.085464         0.788830
 H        -0.294894        -0.634245         1.034076
 H        -0.148345         1.185600         0.627329
 H        -0.884523         0.169432        -0.417710
 H         1.519384        -2.154071         0.156787
 H         1.116170        -1.996274        -1.534716
 H         3.954305        -1.709464        -1.449189
 H         4.244849        -0.422809         1.088032
 H         3.722354         2.029702        -0.514111
 H         4.968381         0.905494        -0.976966
 H         3.074727         0.140891        -2.839852
