19
Iteration:  3858charge 0 multiplicity 1
 C        -0.066212         0.092334         0.241292
 C         1.297555        -0.072827        -0.245926
 C         1.707105        -1.469151        -0.675572
 C         3.107266        -0.995367        -1.109045
 C         3.595636        -0.159979         0.185525
 C         3.971311         1.019178        -0.734523
 C         3.012685         0.380136        -1.732416
 O         1.600023         0.695085        -1.290569
 O         2.262162         0.099141         0.854935
 H        -0.411129        -0.463968         1.132474
 H        -0.004969         1.101089         0.750044
 H        -0.920400        -0.000619        -0.572963
 H         1.575865        -2.120067         0.145574
 H         1.217021        -1.810133        -1.635211
 H         3.926583        -1.671930        -1.390629
 H         4.122995        -0.511163         1.077283
 H         3.732403         2.078892        -0.448920
 H         5.094521         0.844375        -0.896602
 H         2.975471         0.572617        -2.809953
