19
Iteration:   137charge 0 multiplicity 1
 C        -0.119743         0.132649         0.438856
 C         1.296278        -0.179319        -0.177569
 C         1.686562        -1.435677        -0.858205
 C         3.154944        -1.066123        -1.072564
 C         3.668788        -0.216298         0.106617
 C         4.052319         1.018886        -0.748058
 C         2.904800         0.390077        -1.620505
 O         1.469269         0.806204        -1.201978
 O         2.396150         0.112022         0.713660
 H        -0.661542        -0.753593         0.917515
 H        -0.163100         1.076544         1.092168
 H        -0.829842         0.362102        -0.465135
 H         1.574656        -2.395474        -0.214468
 H         1.226573        -1.423288        -1.892853
 H         3.781522        -1.782083        -1.604431
 H         4.242290        -0.791759         0.863815
 H         3.915022         1.985251        -0.358938
 H         5.078684         0.961126        -1.120236
 H         2.871067         0.600896        -2.689228
