19
Iteration:  2962
 C        -0.047535         0.198169         0.251441
 C         1.282250        -0.142757        -0.175076
 C         1.747701        -1.471183        -0.710569
 C         3.157287        -0.998403        -1.026139
 C         3.592639        -0.202058         0.178055
 C         3.952608         1.027932        -0.742316
 C         2.941569         0.354839        -1.730524
 O         1.609181         0.740719        -1.327462
 O         2.248230         0.075063         0.836016
 H        -0.372657        -0.407500         1.093019
 H        -0.064654         1.253765         0.623191
 H        -0.729148         0.061718        -0.569351
 H         1.706894        -2.339409        -0.037528
 H         1.232015        -1.694198        -1.682221
 H         3.833161        -1.866833        -1.199835
 H         4.272226        -0.473048         1.040129
 H         3.671916         1.947146        -0.229171
 H         4.919837         1.086245        -1.258929
 H         2.900552         0.440110        -2.919050
