19
Iteration:   937charge 0 multiplicity 1
 C        -0.069557         0.114487         0.403691
 C         1.298619        -0.117566        -0.128872
 C         1.655319        -1.538872        -0.807543
 C         3.123233        -1.022367        -1.085533
 C         3.620842        -0.193615         0.139873
 C         4.045091         0.983192        -0.784356
 C         2.881308         0.419029        -1.724478
 O         1.577410         0.848267        -1.181221
 O         2.329722         0.060315         0.742070
 H        -0.221326        -0.707653         0.977045
 H        -0.099066         1.074299         0.841685
 H        -0.776584         0.064168        -0.447298
 H         1.486855        -2.281897        -0.022574
 H         1.140801        -1.661931        -1.752927
 H         3.813124        -1.675300        -1.616354
 H         4.240810        -0.546915         0.943018
 H         3.896172         2.038469        -0.473845
 H         5.096419         0.942109        -1.222135
 H         2.857641         0.746364        -2.814060
