19
Iteration:  1748charge 0 multiplicity 1
 C        -0.108678         0.143255         0.265759
 C         1.300240        -0.078273        -0.166939
 C         1.767630        -1.461789        -0.736676
 C         3.156140        -1.037696        -1.023642
 C         3.566123        -0.208889         0.181536
 C         3.930532         0.880529        -0.831960
 C         2.925692         0.459988        -1.775115
 O         1.596933         0.834475        -1.238105
 O         2.324819         0.041542         0.869143
 H        -0.193255        -0.423395         1.300808
 H        -0.206043         1.229596         0.513529
 H        -0.877672        -0.161607        -0.367692
 H         1.534741        -2.393507        -0.119624
 H         1.220242        -1.750797        -1.714572
 H         3.998670        -1.709994        -1.413470
 H         4.264981        -0.442554         0.980515
 H         3.872097         2.011151        -0.601127
 H         4.984536         0.794088        -1.224236
 H         2.809174         0.726023        -2.866243
