19
Iteration:  4365charge 0 multiplicity 1
 C        -0.105635         0.161895         0.341169
 C         1.243917        -0.087808        -0.287234
 C         1.764956        -1.474163        -0.716969
 C         3.231012        -1.031120        -0.974642
 C         3.510397        -0.164936         0.235013
 C         3.965224         0.924753        -0.756113
 C         2.998331         0.347031        -1.706891
 O         1.624107         0.787270        -1.362936
 O         2.240243         0.120905         0.783682
 H        -0.003697        -0.467015         1.257250
 H        -0.304971         1.199571         0.596521
 H        -0.995696        -0.121762        -0.306511
 H         1.669391        -2.181554         0.066571
 H         1.086295        -1.698471        -1.598051
 H         3.944949        -1.726276        -1.511930
 H         4.131635        -0.556806         1.059167
 H         3.834147         1.940576        -0.338782
 H         4.980379         0.953907        -1.237517
 H         3.135835         0.282243        -2.798659
