19
Iteration:  2609charge 0 multiplicity 1
 C        -0.096830         0.122061         0.312220
 C         1.286603        -0.103380        -0.267534
 C         1.712098        -1.520707        -0.743280
 C         3.088928        -1.000813        -1.071749
 C         3.554892        -0.121377         0.269838
 C         3.968731         1.012610        -0.806537
 C         2.981410         0.269281        -1.748400
 O         1.648572         0.801761        -1.323421
 O         2.297095         0.113580         0.896502
 H        -0.333447        -0.799523         0.875291
 H        -0.197175         1.065579         0.916022
 H        -0.905301         0.472544        -0.353201
 H         1.905262        -2.139987         0.129725
 H         1.060144        -2.052353        -1.452638
 H         3.859306        -1.686930        -1.632247
 H         4.291987        -0.353509         1.082355
 H         3.774767         2.057722        -0.673067
 H         5.030923         0.799872        -0.994016
 H         3.040040         0.361493        -2.866879
