19
Iteration:  1484
 C        -0.074100         0.101476         0.397843
 C         1.286214        -0.046756        -0.127507
 C         1.716207        -1.439021        -0.873570
 C         3.140564        -1.049825        -1.142965
 C         3.555780        -0.210508         0.200828
 C         3.977091         0.961230        -0.790888
 C         2.951840         0.383475        -1.709433
 O         1.641459         0.733887        -1.227130
 O         2.294013         0.164431         0.817840
 H        -0.415433        -0.689137         1.116419
 H        -0.258521         1.031542         0.968359
 H        -0.754042         0.063693        -0.397129
 H         1.553246        -2.440170        -0.356446
 H         1.002874        -1.538905        -1.727768
 H         3.827419        -1.816483        -1.450135
 H         4.273451        -0.701177         0.912490
 H         3.695411         1.980308        -0.383362
 H         5.099538         0.872006        -1.224988
 H         2.976046         0.728224        -2.822093
