19
Iteration:  3188charge 0 multiplicity 1
 C        -0.089121         0.133609         0.241406
 C         1.292240        -0.048211        -0.157328
 C         1.683813        -1.514949        -0.656830
 C         3.189328        -1.072660        -1.006819
 C         3.549018        -0.148200         0.163224
 C         3.969805         0.982111        -0.738656
 C         2.950740         0.358473        -1.794807
 O         1.600499         0.786817        -1.343037
 O         2.272323         0.112766         0.834888
 H        -0.272628        -0.728126         0.952356
 H        -0.264781         1.150199         0.845586
 H        -0.875004         0.090786        -0.546145
 H         1.667153        -2.354144         0.116523
 H         1.244633        -1.931400        -1.634908
 H         4.220819        -1.677156        -1.075782
 H         4.345563        -0.696407         0.823354
 H         3.838459         2.039994        -0.469719
 H         5.017325         0.894179        -1.079215
 H         3.165561         0.799836        -2.870016
