19
Iteration:  3390
 C        -0.052762         0.151531         0.278592
 C         1.299136        -0.068763        -0.144490
 C         1.744360        -1.529807        -0.752605
 C         3.197490        -1.006866        -1.049727
 C         3.521697        -0.175096         0.220017
 C         3.957677         0.978012        -0.746967
 C         2.962602         0.330938        -1.737178
 O         1.582226         0.718369        -1.329252
 O         2.257005         0.167064         0.803958
 H        -0.482373        -0.476568         1.083677
 H        -0.172743         1.186316         0.757847
 H        -0.693364         0.248247        -0.571125
 H         1.849207        -2.315343         0.057549
 H         1.176120        -1.878728        -1.720465
 H         4.011512        -1.745420        -1.454241
 H         4.100884        -0.499392         1.119270
 H         3.695001         1.969940        -0.260206
 H         5.033702         0.916190        -1.073054
 H         3.096934         0.528992        -2.813026
