19
Iteration:  1147charge 0 multiplicity 1
 C         0.046866         0.145591         0.416223
 C         1.303940        -0.097478        -0.211631
 C         1.709881        -1.457648        -0.756669
 C         3.083200        -0.991646        -1.165140
 C         3.550621        -0.171759         0.174374
 C         3.972816         1.020560        -0.678200
 C         2.948444         0.423193        -1.775638
 O         1.557340         0.772036        -1.322945
 O         2.296390        -0.024778         0.843665
 H        -0.167656        -0.501555         1.292261
 H         0.023299         1.225908         0.633095
 H        -0.744401         0.015252        -0.281660
 H         1.598583        -1.998584         0.166687
 H         1.089868        -1.884703        -1.556344
 H         3.762987        -1.646759        -1.680052
 H         4.209862        -0.815191         0.773258
 H         3.793878         2.030118        -0.176789
 H         5.003730         0.843462        -1.120370
 H         2.986520         0.585232        -2.887785
