19
Iteration:   723
 C        -0.068670         0.120485         0.413506
 C         1.329693        -0.144960        -0.112046
 C         1.677876        -1.426226        -0.829148
 C         3.087032        -0.963304        -1.192142
 C         3.634962        -0.259726         0.139189
 C         4.013297         0.941517        -0.707581
 C         2.866685         0.447095        -1.686106
 O         1.586860         0.724685        -1.284394
 O         2.328857         0.119268         0.824192
 H        -0.455846        -0.597871         1.147019
 H         0.037122         1.070653         0.932144
 H        -0.803918         0.174609        -0.450090
 H         1.642341        -2.289129        -0.178131
 H         1.027696        -1.601990        -1.694830
 H         3.666793        -1.684086        -1.750109
 H         4.405022        -0.623979         0.854068
 H         3.959600         2.105889        -0.443656
 H         5.052041         0.768193        -1.104099
 H         2.934315         0.854089        -2.719195
