19
Iteration:   271charge 0 multiplicity 1
 C        -0.029253         0.087548         0.393215
 C         1.373301        -0.101993        -0.155854
 C         1.688465        -1.475706        -0.806353
 C         3.051615        -1.037309        -1.165379
 C         3.631836        -0.261624         0.120266
 C         3.898801         0.923066        -0.717281
 C         2.891427         0.388240        -1.711686
 O         1.603120         0.872778        -1.216368
 O         2.361789         0.146778         0.808015
 H        -0.103420        -0.649589         1.242855
 H        -0.103040         1.150330         0.714398
 H        -0.878416        -0.044626        -0.337294
 H         1.584900        -2.390554        -0.210419
 H         1.126209        -1.466139        -1.782600
 H         3.677335        -1.716663        -1.760461
 H         4.365895        -0.536367         0.847338
 H         3.587130         1.808622        -0.227252
 H         4.927348         1.033028        -1.038840
 H         2.913676         0.496678        -2.858470
