19
Iteration:   216charge 0 multiplicity 1
 C         0.017662         0.198141         0.432932
 C         1.361791        -0.178261        -0.164851
 C         1.727053        -1.457660        -0.947150
 C         3.140301        -1.008995        -1.132849
 C         3.563986        -0.294930         0.174204
 C         3.959185         0.995328        -0.742382
 C         2.880034         0.426213        -1.708242
 O         1.505817         0.773252        -1.163209
 O         2.333319         0.097838         0.791713
 H        -0.233193        -0.022665         1.462510
 H         0.101164         1.331519         0.497093
 H        -0.779596        -0.175712        -0.333088
 H         1.642807        -2.414538        -0.420250
 H         1.060978        -1.495703        -1.863780
 H         3.967011        -1.644372        -1.388152
 H         4.204956        -0.659002         0.946287
 H         3.762993         1.862200        -0.237158
 H         4.925188         0.919864        -1.260270
 H         2.727959         0.461649        -2.859600
