19
Iteration:   864charge 0 multiplicity 1
 C        -0.075740         0.212261         0.389584
 C         1.273982        -0.109313        -0.240634
 C         1.788359        -1.518954        -0.832403
 C         3.150555        -1.036718        -1.082007
 C         3.632680        -0.244166         0.147077
 C         3.963286         0.942685        -0.804650
 C         2.876842         0.431773        -1.750854
 O         1.511662         0.834345        -1.171452
 O         2.371199         0.028089         0.848104
 H        -0.294513        -0.650061         1.101451
 H        -0.014894         1.193095         0.865526
 H        -0.999481         0.267162        -0.387737
 H         1.625857        -2.299292        -0.097850
 H         1.137124        -1.633066        -1.766499
 H         3.949833        -1.637140        -1.551372
 H         4.363983        -0.575290         0.945711
 H         3.815265         1.962182        -0.285770
 H         4.905974         1.013134        -1.236984
 H         2.674274         0.686924        -2.787723
