19
Iteration:  3241
 C        -0.124706         0.230335         0.335637
 C         1.254323        -0.062203        -0.210501
 C         1.803506        -1.557848        -0.788916
 C         3.188828        -1.158291        -0.952974
 C         3.538719        -0.096132         0.291222
 C         3.947937         0.983144        -0.739564
 C         2.925958         0.423531        -1.765951
 O         1.581431         0.662174        -1.373781
 O         2.307109         0.147831         0.818518
 H        -0.502692        -0.598573         0.979496
 H        -0.160473         1.196208         0.968689
 H        -0.791571         0.338655        -0.519434
 H         1.753201        -2.403266        -0.115765
 H         1.339298        -1.866185        -1.684957
 H         3.869550        -1.652180        -1.748793
 H         4.273173        -0.567559         0.985806
 H         3.972934         2.026103        -0.381838
 H         4.844524         0.807740        -1.313749
 H         3.373823         0.866453        -2.774760
