19
Iteration:  4166
 C        -0.109502         0.173490         0.333295
 C         1.337245        -0.077298        -0.243801
 C         1.720819        -1.494949        -0.783668
 C         3.178259        -1.054333        -0.997769
 C         3.588324        -0.128570         0.245611
 C         3.982508         0.970482        -0.733946
 C         2.940554         0.385670        -1.742710
 O         1.583904         0.687464        -1.402317
 O         2.237374         0.142751         0.898867
 H        -0.232468        -0.392775         1.300976
 H        -0.080762         1.273932         0.651553
 H        -0.897428        -0.130307        -0.424296
 H         1.701770        -2.433422        -0.161933
 H         1.134394        -1.833358        -1.859290
 H         4.113160        -1.625154        -1.389557
 H         4.161360        -0.685224         0.996883
 H         3.930892         2.073244        -0.411665
 H         4.994228         0.715398        -1.261523
 H         2.979293         0.721778        -2.773324
