19
Iteration:   265
 C        -0.028952         0.091694         0.399476
 C         1.312535        -0.119137        -0.188893
 C         1.659973        -1.444429        -0.746809
 C         3.084446        -1.022603        -1.145457
 C         3.635193        -0.267407         0.108708
 C         3.944772         0.941598        -0.693123
 C         2.913623         0.396198        -1.739550
 O         1.578800         0.887166        -1.229189
 O         2.382091         0.079802         0.762254
 H        -0.096398        -0.515495         1.292529
 H        -0.042004         1.117349         0.730733
 H        -0.830675        -0.090071        -0.268766
 H         1.541506        -2.249411        -0.013433
 H         1.153500        -1.681080        -1.672094
 H         3.686562        -1.681337        -1.800819
 H         4.277139        -0.691309         0.935376
 H         3.348082         1.887714        -0.361617
 H         4.992284         1.126406        -0.981032
 H         2.947901         0.656890        -2.787666
