19
Iteration:  4966charge 0 multiplicity 1
 C        -0.166930         0.181129         0.259487
 C         1.311438        -0.096367        -0.193922
 C         1.732700        -1.581291        -0.758207
 C         3.155882        -1.086766        -0.987211
 C         3.548661        -0.113797         0.225940
 C         4.000653         0.983270        -0.768677
 C         2.964918         0.343471        -1.730234
 O         1.668015         0.756041        -1.352088
 O         2.278029         0.205098         0.831764
 H        -0.272747        -0.408010         1.234671
 H        -0.465438         1.260235         0.469167
 H        -0.874640        -0.497179        -0.310058
 H         1.450979        -2.291256        -0.054996
 H         1.177592        -1.751337        -1.606630
 H         3.948262        -1.835621        -1.306986
 H         4.246793        -0.549675         1.031724
 H         3.581429         1.971538        -0.450386
 H         5.076933         1.033179        -0.921430
 H         3.037797         0.400016        -2.793855
