19
Iteration:   688charge 0 multiplicity 1
 C        -0.027743         0.057158         0.443100
 C         1.338653        -0.043503        -0.299938
 C         1.721957        -1.471171        -0.759838
 C         3.063717        -1.006995        -1.098072
 C         3.589730        -0.215207         0.153517
 C         3.994972         0.912825        -0.757781
 C         2.842393         0.420945        -1.722884
 O         1.635651         0.904184        -1.224722
 O         2.289147         0.040537         0.775830
 H        -0.175288        -0.840759         0.941064
 H        -0.074136         0.909375         1.156186
 H        -0.925861         0.204155        -0.288980
 H         1.743760        -2.081901         0.161440
 H         1.156497        -1.914569        -1.563999
 H         3.743325        -1.600186        -1.720984
 H         4.229714        -0.730454         0.877983
 H         3.845929         2.077180        -0.457715
 H         4.982838         0.626303        -1.167534
 H         2.999166         0.652570        -2.718735
