19
Iteration:  3421charge 0 multiplicity 1
 C        -0.153940         0.101023         0.247569
 C         1.258065        -0.106805        -0.237278
 C         1.691022        -1.490492        -0.664167
 C         3.180894        -0.982644        -1.047896
 C         3.553926        -0.127479         0.233848
 C         4.023330         0.975517        -0.805337
 C         2.957187         0.373117        -1.719818
 O         1.591690         0.772053        -1.297038
 O         2.297833         0.091210         0.821187
 H        -0.530505        -0.769709         0.821652
 H         0.050789         1.041758         0.769526
 H        -0.708941         0.367276        -0.637767
 H         1.895048        -2.159559         0.204413
 H         1.216917        -2.146180        -1.469142
 H         3.887269        -1.791125        -1.408963
 H         4.203639        -0.276201         1.110645
 H         4.049116         2.014735        -0.440803
 H         4.995882         0.715104        -1.173143
 H         3.183856         0.547794        -2.711474
