19
Iteration:  2167
 C        -0.070200         0.235855         0.274399
 C         1.265087        -0.093730        -0.265014
 C         1.818977        -1.512590        -0.638359
 C         3.153199        -1.013293        -1.039708
 C         3.529294        -0.238789         0.162036
 C         3.971966         0.981502        -0.738834
 C         2.933266         0.423400        -1.761728
 O         1.599045         0.804856        -1.334566
 O         2.301403         0.015420         0.860168
 H        -0.437374        -0.417984         1.030382
 H        -0.192543         1.196126         0.689905
 H        -1.044051         0.128805        -0.302399
 H         1.685301        -2.239272         0.193404
 H         1.293662        -1.964695        -1.468649
 H         3.891600        -1.644435        -1.564760
 H         4.127115        -0.755153         0.913829
 H         3.765586         1.929753        -0.341152
 H         4.961799         0.911021        -1.146312
 H         2.932961         0.604034        -2.794003
