19
Iteration:  1402
 C        -0.056982         0.205825         0.271958
 C         1.363300        -0.111755        -0.191092
 C         1.688299        -1.465976        -0.809343
 C         3.203538        -1.068905        -1.078060
 C         3.617559        -0.248478         0.190344
 C         3.888980         1.052366        -0.748599
 C         2.836321         0.392948        -1.642769
 O         1.540933         0.800029        -1.221665
 O         2.366176         0.022682         0.814704
 H        -0.086378        -0.342481         1.213857
 H        -0.027209         1.291213         0.341794
 H        -0.804588        -0.062208        -0.483306
 H         1.398037        -2.222217        -0.081008
 H         1.318927        -1.593614        -1.803580
 H         3.812875        -1.816522        -1.674555
 H         4.371252        -0.683295         0.812353
 H         3.738234         2.048843        -0.304274
 H         4.849901         0.852199        -1.235171
 H         3.029101         0.551383        -2.642084
