19
Iteration:  1727charge 0 multiplicity 1
 C        -0.062588         0.061857         0.288201
 C         1.328661        -0.112196        -0.193518
 C         1.656025        -1.497744        -0.695548
 C         3.017022        -0.970388        -1.182127
 C         3.597990        -0.142985         0.171209
 C         4.058037         0.989773        -0.725309
 C         2.933157         0.376618        -1.735234
 O         1.644740         0.820912        -1.279634
 O         2.297612         0.101476         0.875001
 H        -0.444792        -0.471864         1.240248
 H        -0.417581         1.111285         0.447735
 H        -0.760565        -0.245768        -0.389601
 H         1.852571        -2.161446         0.271238
 H         0.963432        -2.109498        -1.429888
 H         3.709978        -1.732618        -1.658799
 H         4.213463        -0.734587         0.835330
 H         4.120088         2.112192        -0.379579
 H         5.095186         0.763435        -1.222598
 H         2.860416         0.518752        -2.835292
