19
Iteration:  4496charge 0 multiplicity 1
 C        -0.036099         0.116857         0.277081
 C         1.301645        -0.046407        -0.253094
 C         1.741333        -1.499825        -0.727874
 C         3.111770        -1.048131        -0.997248
 C         3.521678        -0.186356         0.201498
 C         3.954184         0.963524        -0.726325
 C         3.017975         0.410935        -1.705252
 O         1.619144         0.732764        -1.364542
 O         2.229646         0.181964         0.799870
 H        -0.055553        -0.359001         1.262173
 H        -0.103015         1.155668         0.518645
 H        -0.902186        -0.273040        -0.215508
 H         1.675508        -2.292324         0.087316
 H         1.162200        -2.075682        -1.613741
 H         3.931617        -1.818672        -1.179182
 H         4.158365        -0.482874         1.049434
 H         3.723866         1.957510        -0.366116
 H         5.001491         0.830194        -0.998764
 H         3.081907         0.462216        -2.806602
