19
Iteration:  2966
 C        -0.047776         0.215046         0.270193
 C         1.273891        -0.174368        -0.195545
 C         1.755432        -1.474166        -0.715899
 C         3.141462        -1.023459        -1.034563
 C         3.585276        -0.179879         0.183821
 C         3.940682         1.026371        -0.757760
 C         2.961922         0.391071        -1.747662
 O         1.632115         0.728534        -1.315208
 O         2.240664         0.079093         0.847739
 H        -0.383154        -0.482878         1.066316
 H        -0.016905         1.235262         0.623872
 H        -0.683374         0.055012        -0.639125
 H         1.616004        -2.257248         0.014633
 H         1.213473        -1.741666        -1.579736
 H         3.893935        -1.855646        -1.174743
 H         4.211939        -0.540290         0.998670
 H         3.704298         1.994290        -0.304357
 H         4.927237         1.042713        -1.233999
 H         2.829006         0.520150        -2.787955
