19
Iteration:  4435charge 0 multiplicity 1
 C        -0.095354         0.174543         0.192287
 C         1.298611        -0.096219        -0.192455
 C         1.795319        -1.601407        -0.664146
 C         3.151905        -1.053223        -1.093237
 C         3.517401        -0.157571         0.286197
 C         3.980041         0.939616        -0.790236
 C         2.946959         0.344603        -1.736645
 O         1.562916         0.831760        -1.303830
 O         2.252899         0.128306         0.823596
 H        -0.469481        -0.636769         0.870804
 H         0.081727         1.133351         0.817718
 H        -0.693447         0.530611        -0.662419
 H         1.988519        -2.252852         0.184706
 H         1.210806        -1.999070        -1.391760
 H         4.032266        -1.540087        -1.403544
 H         4.199468        -0.230606         1.155271
 H         3.917026         2.053237        -0.577780
 H         5.070237         0.679359        -0.965110
 H         3.070276         0.556779        -2.831909
