19
Iteration:   622charge 0 multiplicity 1
 C         0.115598         0.186160         0.389615
 C         1.309707        -0.143916        -0.271696
 C         1.715476        -1.574755        -0.727442
 C         3.070337        -1.043305        -1.060514
 C         3.581440        -0.196154         0.166691
 C         3.941338         0.951008        -0.714706
 C         2.841954         0.558281        -1.729741
 O         1.533038         0.922228        -1.254866
 O         2.324522        -0.069637         0.746788
 H        -0.024443        -0.343202         1.319262
 H         0.179560         1.281756         0.549597
 H        -0.648107        -0.200383        -0.348473
 H         1.529231        -2.172221         0.185133
 H         1.194569        -1.978883        -1.591162
 H         3.718037        -1.690997        -1.691850
 H         4.308781        -0.776216         0.700134
 H         3.897200         2.045640        -0.130641
 H         4.943703         0.815947        -1.227936
 H         2.873033         0.790463        -2.727177
