19
Iteration:  2800charge 0 multiplicity 1
 C        -0.102031         0.150965         0.304916
 C         1.337435        -0.107584        -0.216429
 C         1.751056        -1.443967        -0.816820
 C         3.154104        -1.061025        -1.023104
 C         3.551441        -0.210545         0.235332
 C         3.901624         0.967519        -0.751044
 C         2.933568         0.337817        -1.804446
 O         1.632389         0.673406        -1.298950
 O         2.282629         0.246042         0.884736
 H        -0.353581        -0.733216         0.918012
 H         0.173272         0.953274         1.056841
 H        -0.849015         0.459520        -0.414323
 H         1.459045        -2.247959        -0.161553
 H         1.037268        -1.525364        -1.600831
 H         3.967606        -1.839629        -1.289544
 H         4.375278        -0.521080         0.910950
 H         3.873150         1.990102        -0.328833
 H         4.940040         0.817450        -1.150378
 H         3.016192         0.598486        -2.918170
