19
Iteration:  2492
 C        -0.145998         0.126816         0.339930
 C         1.356155        -0.068294        -0.142962
 C         1.759734        -1.440230        -0.743806
 C         3.136084        -1.031717        -1.083038
 C         3.526914        -0.183909         0.220299
 C         3.989309         0.917193        -0.750767
 C         2.953227         0.344506        -1.711088
 O         1.609874         0.743271        -1.324339
 O         2.280131         0.191718         0.794362
 H        -0.270934        -0.292500         1.354349
 H        -0.293716         1.193073         0.219405
 H        -0.813907        -0.355673        -0.420812
 H         1.619178        -2.514312        -0.145379
 H         1.015086        -1.743028        -1.538254
 H         3.877973        -1.664109        -1.662443
 H         4.266848        -0.591489         0.970300
 H         3.863039         1.981315        -0.438200
 H         5.070216         0.765240        -1.037203
 H         3.127824         0.554763        -2.827208
