19
Iteration:   823charge 0 multiplicity 1
 C        -0.068844         0.062680         0.393762
 C         1.342312        -0.090328        -0.158391
 C         1.622457        -1.461517        -0.827383
 C         3.107142        -1.044709        -1.142623
 C         3.546156        -0.253077         0.126978
 C         4.011634         0.967060        -0.777916
 C         2.929532         0.465301        -1.753554
 O         1.565642         0.830343        -1.229744
 O         2.386471         0.118183         0.866560
 H         0.003595        -0.574083         1.344970
 H        -0.427113         1.056513         0.648385
 H        -0.857512        -0.248210        -0.224156
 H         1.666304        -2.254294        -0.101585
 H         1.077559        -1.729391        -1.745736
 H         3.730964        -1.804801        -1.629931
 H         4.279725        -0.703879         0.835741
 H         3.786717         1.961006        -0.262338
 H         5.125422         1.057052        -1.065215
 H         3.103389         0.584380        -2.783272
