19
Iteration:   215charge 0 multiplicity 1
 C         0.016985         0.195111         0.426167
 C         1.359446        -0.165068        -0.169106
 C         1.724540        -1.462154        -0.949715
 C         3.136444        -1.019380        -1.124521
 C         3.567943        -0.295862         0.159323
 C         3.958881         1.005137        -0.740872
 C         2.878634         0.421804        -1.702219
 O         1.512342         0.774909        -1.154249
 O         2.336622         0.100497         0.790335
 H        -0.223923        -0.041950         1.456171
 H         0.088514         1.339608         0.530321
 H        -0.806506        -0.202571        -0.344556
 H         1.617306        -2.451892        -0.427570
 H         1.066643        -1.488891        -1.893545
 H         3.956925        -1.648345        -1.366129
 H         4.207022        -0.649230         0.958758
 H         3.761419         1.858572        -0.237794
 H         4.917651         0.951695        -1.286941
 H         2.724304         0.430681        -2.815264
