19
Iteration:  1262charge 0 multiplicity 1
 C        -0.052918         0.191308         0.401998
 C         1.346321        -0.120472        -0.149792
 C         1.668713        -1.507914        -0.822120
 C         3.095452        -1.037911        -1.171141
 C         3.560571        -0.146596         0.207981
 C         4.001173         1.025016        -0.707072
 C         2.990500         0.431011        -1.729497
 O         1.494643         0.728939        -1.311703
 O         2.369847         0.033562         0.834313
 H        -0.407494        -0.506772         1.062518
 H        -0.105385         1.156962         0.784966
 H        -0.758709         0.285654        -0.399140
 H         1.672919        -2.393067        -0.139629
 H         0.977126        -1.610737        -1.682813
 H         3.861657        -1.762481        -1.551817
 H         4.227185        -0.518025         0.988205
 H         3.936353         2.011828        -0.252457
 H         4.936535         0.673248        -1.216664
 H         3.116665         0.707993        -2.783046
