19
Iteration:  1084charge 0 multiplicity 1
 C        -0.090301         0.086550         0.338489
 C         1.363394        -0.078655        -0.178754
 C         1.703043        -1.464456        -0.723565
 C         3.064245        -1.004813        -1.176985
 C         3.596699        -0.221474         0.187412
 C         3.930410         0.902039        -0.778965
 C         2.923340         0.457945        -1.736241
 O         1.558273         0.808482        -1.290577
 O         2.379077         0.089401         0.903571
 H        -0.475252        -0.788620         0.975273
 H        -0.196360         1.013316         0.978804
 H        -0.584159         0.175439        -0.534136
 H         1.698159        -2.263215         0.057108
 H         1.136469        -1.796340        -1.594700
 H         3.800182        -1.588527        -1.697453
 H         4.395792        -0.651179         0.860207
 H         3.938883         1.997429        -0.434253
 H         4.888011         0.832551        -1.345190
 H         3.116410         0.839242        -2.710942
