19
Iteration:    38
 C        -0.059239        -0.008132         0.395198
 C         1.320078        -0.112121        -0.201301
 C         1.655248        -1.432476        -0.787792
 C         3.021659        -0.969966        -1.143941
 C         3.541187        -0.239943         0.149609
 C         4.023984         0.919439        -0.791273
 C         2.913727         0.467465        -1.727408
 O         1.676246         0.880399        -1.249381
 O         2.327483         0.104107         0.870643
 H        -0.037028        -0.526289         1.481694
 H        -0.414680         1.055319         0.462440
 H        -0.826789        -0.553710        -0.208004
 H         1.681814        -2.188408         0.112406
 H         1.044690        -1.684866        -1.702037
 H         3.796869        -1.660856        -1.538675
 H         4.263040        -0.745269         0.848875
 H         4.050879         2.009999        -0.532535
 H         4.986272         0.658849        -1.247914
 H         3.003392         0.660352        -2.796413
