19
Iteration:  4228
 C        -0.095960         0.086334         0.234071
 C         1.300852        -0.052422        -0.206707
 C         1.695306        -1.442352        -0.648473
 C         3.170239        -0.991986        -1.064007
 C         3.595254        -0.113800         0.205519
 C         3.987935         0.980009        -0.678102
 C         2.938312         0.307653        -1.756922
 O         1.598361         0.741181        -1.373309
 O         2.287317         0.101110         0.845303
 H        -0.579053        -0.681025         0.832542
 H        -0.106821         0.996144         0.811721
 H        -0.692443         0.363943        -0.594927
 H         1.565163        -2.372176         0.099846
 H         1.088695        -1.942653        -1.393568
 H         3.825988        -1.780531        -1.471606
 H         4.291575        -0.544780         0.955317
 H         3.841244         2.013976        -0.456792
 H         5.015057         0.897015        -0.991657
 H         3.084112         0.555119        -2.832946
