19
Iteration:  3364charge 0 multiplicity 1
 C        -0.036408         0.147557         0.291018
 C         1.273272        -0.029940        -0.233454
 C         1.652004        -1.557805        -0.744917
 C         3.164192        -1.058763        -1.010288
 C         3.580772        -0.165819         0.214235
 C         3.946780         1.053206        -0.710084
 C         2.957701         0.355229        -1.715470
 O         1.616862         0.697427        -1.430429
 O         2.319039         0.126370         0.880834
 H        -0.185113        -0.292447         1.273888
 H        -0.245287         1.164569         0.609713
 H        -0.930800        -0.045137        -0.371126
 H         1.442964        -2.357464        -0.059846
 H         1.343988        -1.774017        -1.750711
 H         3.871945        -1.671892        -1.424504
 H         4.223342        -0.474145         1.031238
 H         3.606844         1.959520        -0.296635
 H         4.959854         1.072453        -1.010537
 H         3.087567         0.571902        -2.768325
