19
Iteration:  4188
 C        -0.094083         0.171381         0.250649
 C         1.329686        -0.181729        -0.196783
 C         1.737356        -1.472761        -0.722704
 C         3.115883        -1.029506        -0.972486
 C         3.594326        -0.150036         0.219491
 C         3.962477         1.005604        -0.750655
 C         2.984511         0.359316        -1.722028
 O         1.564128         0.738967        -1.295725
 O         2.279690         0.136728         0.769996
 H        -0.505977        -0.523966         1.016676
 H         0.038569         1.183026         0.738381
 H        -0.701428         0.124121        -0.697016
 H         1.613044        -2.346761        -0.011769
 H         1.039414        -1.895929        -1.627559
 H         3.752835        -1.584531        -1.726423
 H         4.306229        -0.313973         1.057599
 H         3.850370         2.090446        -0.390980
 H         5.078120         0.763588        -0.873654
 H         3.071379         0.326807        -2.803046
