19
Iteration:  1188
 C        -0.026374         0.130952         0.321495
 C         1.349403        -0.170692        -0.125694
 C         1.722425        -1.416943        -0.834368
 C         3.123559        -0.969311        -1.165832
 C         3.515222        -0.266055         0.153563
 C         4.013138         0.924200        -0.783790
 C         2.901805         0.392880        -1.717508
 O         1.540426         0.789715        -1.163591
 O         2.337993         0.153220         0.863756
 H        -0.266727        -0.324254         1.286109
 H        -0.207555         1.214900         0.344296
 H        -0.888748        -0.241264        -0.468520
 H         1.829034        -2.311521        -0.192707
 H         1.008005        -1.577862        -1.670028
 H         3.899266        -1.651317        -1.556172
 H         4.298473        -0.672697         0.813234
 H         3.754641         1.880655        -0.517757
 H         5.009857         0.714221        -1.043399
 H         2.926236         0.644998        -2.828764
