19
Iteration:  4688charge 0 multiplicity 1
 C        -0.161873         0.188266         0.294231
 C         1.290311        -0.134913        -0.140155
 C         1.762409        -1.531028        -0.798312
 C         3.228220        -1.006093        -1.029401
 C         3.556085        -0.154164         0.324662
 C         4.025319         0.985144        -0.782924
 C         2.924146         0.306572        -1.692290
 O         1.595838         0.717505        -1.385530
 O         2.252839         0.209958         0.818659
 H        -0.548881        -0.391573         1.199755
 H        -0.258195         1.275578         0.496012
 H        -1.002243        -0.150545        -0.477883
 H         1.982298        -2.400145        -0.121003
 H         1.190982        -1.765599        -1.571656
 H         4.016305        -1.642370        -1.574370
 H         4.097816        -0.791128         1.066284
 H         3.860077         2.102912        -0.609521
 H         5.082560         0.724576        -1.104778
 H         3.110698         0.617146        -2.805597
