19
Iteration:  1316charge 0 multiplicity 1
 C        -0.064048         0.089656         0.316810
 C         1.351110        -0.138372        -0.145703
 C         1.633475        -1.407669        -0.765770
 C         3.057241        -0.987788        -1.136562
 C         3.597549        -0.171799         0.146267
 C         4.000457         0.982768        -0.757988
 C         2.930758         0.430015        -1.728156
 O         1.618578         0.698087        -1.275781
 O         2.335320         0.111293         0.880390
 H        -0.437380        -0.589993         0.978163
 H        -0.148093         0.979552         0.848473
 H        -0.764105         0.115865        -0.456263
 H         1.565779        -2.285678        -0.107090
 H         1.039859        -1.615204        -1.664383
 H         3.753068        -1.702804        -1.634105
 H         4.252067        -0.597725         0.892701
 H         3.915522         1.940853        -0.174504
 H         5.084178         0.892524        -1.184892
 H         3.007338         0.611501        -2.780594
