19
Iteration:   680
 C         0.010947         0.044074         0.404331
 C         1.296591        -0.098195        -0.253960
 C         1.675285        -1.410267        -0.788572
 C         3.088982        -1.054632        -1.105704
 C         3.626371        -0.200136         0.183263
 C         3.950484         0.931444        -0.791392
 C         2.892001         0.423554        -1.686377
 O         1.610417         0.889310        -1.226037
 O         2.307542         0.057415         0.802872
 H        -0.166442        -0.856651         0.999101
 H        -0.009374         0.931401         1.037289
 H        -0.775333         0.280470        -0.381582
 H         1.564996        -2.132192         0.012419
 H         1.079581        -1.689455        -1.662060
 H         3.663046        -1.704357        -1.750920
 H         4.268070        -0.619752         1.008432
 H         3.996646         1.965876        -0.238121
 H         4.876110         0.842794        -1.396658
 H         2.934841         0.468761        -2.859073
