19
Iteration:   892charge 0 multiplicity 1
 C         0.011350         0.160786         0.463334
 C         1.360851        -0.161622        -0.104229
 C         1.669154        -1.482359        -0.838682
 C         3.052837        -1.014915        -1.157879
 C         3.567279        -0.233327         0.130886
 C         3.943082         1.028937        -0.683870
 C         2.952277         0.453393        -1.698248
 O         1.549055         0.720305        -1.330531
 O         2.357898         0.080353         0.781872
 H        -0.376407        -0.683743         0.921099
 H        -0.095648         1.105582         1.007747
 H        -0.616611         0.403237        -0.356764
 H         1.712786        -2.336582        -0.119095
 H         0.933590        -1.497304        -1.604677
 H         3.805121        -1.649693        -1.639013
 H         4.213560        -0.609507         0.898577
 H         3.884968         1.983474        -0.224237
 H         5.043995         1.055118        -1.110961
 H         2.908823         0.663906        -2.795940
