19
Iteration:  1920
 C        -0.010047         0.204550         0.346893
 C         1.272843        -0.130662        -0.196254
 C         1.704988        -1.540989        -0.803767
 C         3.190117        -1.056940        -1.028244
 C         3.605734        -0.258062         0.218626
 C         3.924934         0.995747        -0.686980
 C         2.891389         0.449412        -1.714916
 O         1.526807         0.727143        -1.387372
 O         2.336239         0.157450         0.828379
 H        -0.111600        -0.215685         1.402372
 H        -0.084891         1.308850         0.482979
 H        -0.876089        -0.082135        -0.301568
 H         1.503328        -2.431371        -0.251009
 H         1.236602        -1.484990        -1.741220
 H         3.880920        -1.828989        -1.518069
 H         4.295932        -0.622408         1.004289
 H         3.974159         1.974426        -0.212737
 H         4.870362         0.956129        -1.204577
 H         3.146778         0.575025        -2.806238
