19
Iteration:  1764
 C        -0.101204         0.200064         0.386752
 C         1.296841        -0.155092        -0.220944
 C         1.717049        -1.503621        -0.905072
 C         3.137615        -1.038702        -1.048039
 C         3.615430        -0.172757         0.217805
 C         3.963491         1.020702        -0.766504
 C         2.868586         0.306604        -1.703945
 O         1.586700         0.782418        -1.258614
 O         2.341113         0.135431         0.879999
 H        -0.260115        -0.402566         1.238051
 H         0.017798         1.278257         0.498314
 H        -0.686381        -0.111591        -0.592280
 H         1.519537        -2.385943        -0.259712
 H         1.140263        -1.644266        -1.887122
 H         3.788575        -1.664520        -1.585946
 H         4.382959        -0.581670         0.912843
 H         3.782693         2.004299        -0.326888
 H         5.007634         0.888592        -1.170701
 H         3.093411         0.310184        -2.746614
