19
Iteration:  2060
 C        -0.166378         0.242464         0.299459
 C         1.314703        -0.067524        -0.200469
 C         1.745755        -1.585331        -0.842817
 C         3.169741        -1.114621        -1.002636
 C         3.621927        -0.192093         0.208019
 C         3.870275         0.976781        -0.738265
 C         2.901156         0.356865        -1.672166
 O         1.593797         0.813556        -1.247634
 O         2.400908         0.092427         0.797829
 H        -0.453174        -0.382225         1.129582
 H        -0.117818         1.259814         0.539350
 H        -0.629179         0.162324        -0.618560
 H         1.614404        -2.496604        -0.171040
 H         1.246299        -1.588013        -1.870575
 H         3.856437        -1.630504        -1.717497
 H         4.257804        -0.536064         1.027431
 H         3.624865         2.048410        -0.468700
 H         4.994893         0.995788        -1.002762
 H         2.814164         0.530659        -2.722456
