19
Iteration:  4455
 C        -0.086491         0.171140         0.276407
 C         1.289689        -0.159879        -0.224128
 C         1.689610        -1.482879        -0.720990
 C         3.138781        -1.022188        -0.980060
 C         3.503948        -0.139817         0.182358
 C         3.993109         1.022256        -0.762238
 C         2.981625         0.350322        -1.741931
 O         1.668302         0.665110        -1.333346
 O         2.261464         0.184289         0.878497
 H        -0.444738        -0.762351         0.838993
 H        -0.179057         1.175685         0.829713
 H        -0.674854         0.217603        -0.675091
 H         1.737731        -2.168421         0.013479
 H         1.241393        -1.721423        -1.648511
 H         3.777392        -1.772156        -1.453161
 H         4.263376        -0.503004         0.932254
 H         3.783378         1.991102        -0.257406
 H         5.013420         0.756934        -1.245891
 H         3.088794         0.589107        -2.870879
