19
Iteration:  4379
 C        -0.078217         0.114703         0.336835
 C         1.350300        -0.071488        -0.196870
 C         1.718196        -1.530420        -0.779094
 C         3.093863        -1.085732        -1.028041
 C         3.556391        -0.191709         0.257760
 C         3.933013         0.987323        -0.693193
 C         2.942940         0.326781        -1.786528
 O         1.668717         0.770524        -1.416737
 O         2.248354         0.238524         0.843741
 H        -0.288308        -0.558996         1.251241
 H        -0.030653         1.191961         0.706843
 H        -0.881711        -0.127061        -0.425392
 H         1.568331        -2.251903        -0.035139
 H         1.363118        -1.780289        -1.731665
 H         3.987187        -1.709637        -1.250375
 H         4.284729        -0.587372         1.029431
 H         3.553742         1.990204        -0.408925
 H         5.035385         0.781045        -0.865675
 H         3.142465         0.579021        -2.902041
