19
Iteration:  1897charge 0 multiplicity 1
 C        -0.052800         0.184288         0.399285
 C         1.256443        -0.078165        -0.161549
 C         1.731205        -1.550957        -0.772447
 C         3.117291        -0.963056        -1.149792
 C         3.540060        -0.231924         0.204297
 C         4.009336         0.921130        -0.672305
 C         2.965440         0.456555        -1.749727
 O         1.578253         0.684857        -1.360553
 O         2.306039         0.163356         0.778170
 H        -0.188197        -0.339822         1.344037
 H        -0.241440         1.216216         0.620822
 H        -0.855672        -0.116615        -0.371385
 H         1.847170        -2.108068         0.138428
 H         1.060675        -1.955212        -1.524783
 H         3.819997        -1.705070        -1.671665
 H         4.147887        -0.635888         1.042208
 H         3.822046         1.899335        -0.219459
 H         5.105516         0.966424        -0.861481
 H         3.135014         0.613502        -2.823203
