19
Iteration:  3017charge 0 multiplicity 1
 C        -0.112535         0.074092         0.252957
 C         1.274007        -0.054447        -0.214450
 C         1.645402        -1.486110        -0.712066
 C         3.175124        -1.036290        -1.015458
 C         3.564551        -0.218231         0.218150
 C         3.965746         0.991258        -0.728772
 C         2.991954         0.375094        -1.688280
 O         1.578707         0.712508        -1.360305
 O         2.380983         0.212688         0.819529
 H        -0.419052        -0.821900         0.813424
 H        -0.004937         0.935120         0.980978
 H        -0.837394         0.380747        -0.494845
 H         1.383831        -2.356722        -0.041206
 H         1.162082        -1.705946        -1.718313
 H         3.919951        -1.851419        -1.421906
 H         4.222822        -0.365873         1.145243
 H         3.903335         2.011146        -0.325412
 H         4.940796         0.803085        -1.267162
 H         2.932175         0.686914        -2.828363
