19
Iteration:  1936charge 0 multiplicity 1
 C        -0.086526         0.220736         0.372430
 C         1.370700        -0.125291        -0.277769
 C         1.665859        -1.566544        -0.793469
 C         3.087725        -1.096849        -1.031974
 C         3.583997        -0.092951         0.208610
 C         3.962283         0.985352        -0.747843
 C         2.930448         0.415714        -1.714707
 O         1.629741         0.794938        -1.290227
 O         2.297561         0.021301         0.813612
 H        -0.169978        -0.330971         1.309427
 H        -0.187927         1.321118         0.498942
 H        -0.835787        -0.161661        -0.317559
 H         1.685459        -2.211791         0.162084
 H         1.257901        -2.000205        -1.781362
 H         3.868548        -1.615746        -1.499045
 H         4.331298        -0.368117         0.960055
 H         3.647874         2.020904        -0.528282
 H         5.043182         0.958345        -1.066666
 H         2.955166         0.703103        -2.760082
