19
Iteration:  4000charge 0 multiplicity 1
 C        -0.133137         0.214988         0.248955
 C         1.251294        -0.107628        -0.238484
 C         1.766703        -1.596034        -0.695468
 C         3.193234        -1.058952        -1.027800
 C         3.553327        -0.192888         0.217587
 C         3.933806         0.961260        -0.760711
 C         2.946979         0.506034        -1.744262
 O         1.599660         0.791122        -1.333681
 O         2.282176         0.106764         0.869164
 H        -0.324982        -0.570826         1.027600
 H         0.006680         0.976943         1.002251
 H        -0.894657         0.185306        -0.574011
 H         1.833138        -2.380551         0.073791
 H         1.488521        -2.103033        -1.693297
 H         3.978695        -1.643635        -1.408855
 H         4.285095        -0.457783         0.980436
 H         3.964712         2.018038        -0.424367
 H         4.993129         0.674007        -1.168006
 H         3.014247         0.480049        -2.845853
