19
Iteration:  4846charge 0 multiplicity 1
 C        -0.106255         0.209844         0.317051
 C         1.275940        -0.138782        -0.287019
 C         1.807979        -1.598919        -0.790603
 C         3.152886        -1.077033        -1.034458
 C         3.598899        -0.136169         0.262686
 C         3.982877         0.925487        -0.740650
 C         2.944998         0.314735        -1.702573
 O         1.560936         0.751766        -1.338197
 O         2.226566         0.296389         0.853672
 H        -0.383351        -0.741444         0.816168
 H        -0.078026         1.016213         1.112130
 H        -0.784401         0.283528        -0.531049
 H         1.587907        -2.278012         0.016855
 H         1.348250        -1.998556        -1.761046
 H         4.059338        -1.654309        -1.378106
 H         4.283101        -0.339762         1.100470
 H         3.990333         2.033004        -0.626979
 H         5.015904         0.706350        -1.057117
 H         3.073690         0.478519        -2.697383
