19
Iteration:  2608charge 0 multiplicity 1
 C        -0.102653         0.126535         0.308464
 C         1.272975        -0.106424        -0.265868
 C         1.723080        -1.526498        -0.746539
 C         3.097001        -1.007245        -1.066359
 C         3.561522        -0.122355         0.273715
 C         3.961780         1.009009        -0.810061
 C         2.986762         0.277517        -1.754550
 O         1.641880         0.807757        -1.327584
 O         2.302969         0.115815         0.898820
 H        -0.314359        -0.788673         0.879276
 H        -0.174162         1.073056         0.942690
 H        -0.907033         0.468060        -0.341450
 H         1.877508        -2.182543         0.190806
 H         1.054574        -2.012781        -1.480375
 H         3.855236        -1.689234        -1.633083
 H         4.260295        -0.401867         1.091792
 H         3.760314         2.053179        -0.667914
 H         5.025421         0.796239        -1.011190
 H         3.046461         0.363843        -2.841310
