19
Iteration:  4035
 C        -0.094302         0.151634         0.278607
 C         1.348529        -0.115135        -0.184147
 C         1.726834        -1.507494        -0.756544
 C         3.140811        -1.034123        -1.039127
 C         3.542994        -0.229430         0.206917
 C         3.906226         0.985255        -0.691557
 C         2.994040         0.460028        -1.757240
 O         1.602616         0.653297        -1.371912
 O         2.303061         0.215969         0.847341
 H        -0.305320        -0.777711         0.938383
 H        -0.064924         1.111950         0.846384
 H        -0.979540         0.414160        -0.271860
 H         1.607401        -2.307430        -0.078323
 H         1.170635        -1.668173        -1.667722
 H         3.843258        -1.794106        -1.326308
 H         4.266394        -0.566746         0.933141
 H         3.684751         2.009518        -0.310842
 H         5.004659         0.906132        -1.008520
 H         3.108171         0.496406        -2.811678
