19
Iteration:   644charge 0 multiplicity 1
 C        -0.110377         0.234002         0.417654
 C         1.290018        -0.108590        -0.121794
 C         1.720414        -1.490807        -0.836136
 C         3.126592        -0.950867        -1.227944
 C         3.559879        -0.277625         0.126515
 C         3.947613         0.989246        -0.752836
 C         2.911395         0.434136        -1.743789
 O         1.628086         0.746318        -1.224258
 O         2.359717         0.025092         0.879051
 H        -0.324950        -0.424139         1.232377
 H        -0.095765         1.274642         0.789068
 H        -0.868098        -0.001695        -0.409966
 H         1.873307        -2.346944        -0.141422
 H         1.118170        -1.785738        -1.682317
 H         3.803099        -1.659876        -1.730421
 H         4.357600        -0.581742         0.799167
 H         3.750319         1.992608        -0.123053
 H         4.956279         0.915323        -1.228822
 H         2.887065         0.579684        -2.782598
