19
Iteration:  2817
 C        -0.043946         0.220584         0.373902
 C         1.284509        -0.156921        -0.280870
 C         1.658882        -1.599323        -0.758504
 C         3.133949        -1.064454        -1.049476
 C         3.541819        -0.088493         0.237199
 C         4.001089         0.983379        -0.750538
 C         2.956772         0.404032        -1.691726
 O         1.582334         0.719806        -1.394741
 O         2.321412         0.154400         0.890691
 H        -0.461204        -0.662917         0.861865
 H        -0.008639         1.085491         0.977726
 H        -0.739056         0.480414        -0.455808
 H         1.691985        -2.424793        -0.027481
 H         1.345999        -1.811536        -1.810887
 H         3.811591        -1.667912        -1.549536
 H         4.216725        -0.440354         1.018068
 H         3.784210         2.042164        -0.542646
 H         5.008981         0.752493        -1.081327
 H         3.097574         0.534700        -2.748054
