19
Iteration:  1997
 C        -0.080339         0.066479         0.298409
 C         1.269500        -0.107029        -0.219017
 C         1.708059        -1.467640        -0.716431
 C         3.118978        -1.052850        -0.970202
 C         3.634118        -0.299280         0.188077
 C         4.077903         0.940788        -0.730507
 C         2.899866         0.486843        -1.698530
 O         1.548831         0.776840        -1.308577
 O         2.303509         0.192117         0.722520
 H        -0.463625        -0.600620         1.120033
 H        -0.095910         1.068159         0.810986
 H        -0.845492         0.126965        -0.394236
 H         1.511835        -2.190696         0.011546
 H         1.210859        -1.759479        -1.564144
 H         3.816125        -1.654050        -1.579839
 H         4.240894        -0.778840         0.968405
 H         3.853920         1.977462        -0.333881
 H         5.049849         1.030775        -1.174457
 H         3.153527         0.730932        -2.776506
