19
Iteration:   795
 C        -0.039372         0.103234         0.422503
 C         1.327275        -0.185944        -0.164073
 C         1.694941        -1.477703        -0.830532
 C         3.134846        -0.999920        -1.103780
 C         3.624786        -0.255493         0.182645
 C         4.005976         0.900915        -0.752302
 C         2.832467         0.521681        -1.687769
 O         1.519980         0.864829        -1.308204
 O         2.345627         0.093123         0.799570
 H        -0.042972        -0.307082         1.410337
 H        -0.097756         1.224004         0.570065
 H        -1.004198        -0.267209        -0.076737
 H         1.620302        -2.396212        -0.179244
 H         1.150912        -1.617186        -1.782863
 H         3.799144        -1.587596        -1.751788
 H         4.276470        -0.587055         0.988030
 H         4.039356         1.810336        -0.255761
 H         4.963235         0.809377        -1.226476
 H         3.078919         0.573722        -2.822446
