19
Iteration:   873charge 0 multiplicity 1
 C        -0.080951         0.164324         0.396007
 C         1.271757        -0.171024        -0.247890
 C         1.683633        -1.537075        -0.829326
 C         3.151148        -1.014629        -1.106710
 C         3.715311        -0.222173         0.165292
 C         3.969112         0.949260        -0.763627
 C         2.817760         0.424787        -1.688977
 O         1.542107         0.828265        -1.213184
 O         2.384656         0.104281         0.843166
 H        -0.453762        -0.450674         1.187101
 H         0.144524         1.114442         0.885319
 H        -0.938349         0.499222        -0.342232
 H         1.544235        -2.479947        -0.272592
 H         1.404660        -1.692603        -1.897636
 H         3.905031        -1.649626        -1.608053
 H         4.425829        -0.792779         0.779760
 H         3.656684         1.922596        -0.311660
 H         4.881180         1.073333        -1.217619
 H         2.875986         0.672899        -2.838424
