19
Iteration:  2987charge 0 multiplicity 1
 C        -0.073064         0.193648         0.252096
 C         1.272792        -0.089398        -0.199849
 C         1.746387        -1.640992        -0.715531
 C         3.139312        -0.998276        -1.128108
 C         3.496481        -0.108888         0.230388
 C         3.969045         0.989307        -0.738958
 C         2.979254         0.341157        -1.750286
 O         1.633367         0.782041        -1.311934
 O         2.268581         0.107669         0.879148
 H        -0.424199        -0.572541         0.979945
 H        -0.031513         1.014113         0.971971
 H        -0.883138         0.382940        -0.487473
 H         1.930708        -2.409811         0.010384
 H         1.157357        -2.012536        -1.485650
 H         3.890810        -1.773479        -1.563566
 H         4.235649        -0.114924         1.083843
 H         3.971016         2.032748        -0.442155
 H         4.960833         0.690170        -1.086259
 H         3.003338         0.550880        -2.918450
