19
Iteration:  3619charge 0 multiplicity 1
 C        -0.099072         0.147065         0.296219
 C         1.235415        -0.080613        -0.152913
 C         1.771928        -1.516116        -0.678029
 C         3.151346        -1.051968        -1.032386
 C         3.538388        -0.152477         0.182319
 C         3.966576         1.003106        -0.721915
 C         2.980300         0.334409        -1.833651
 O         1.608820         0.801632        -1.451811
 O         2.281050         0.104824         0.927332
 H        -0.402930        -0.719333         0.918362
 H        -0.034100         1.065057         0.944818
 H        -0.739184         0.253973        -0.623746
 H         1.822010        -2.386585         0.042926
 H         1.265066        -1.993740        -1.570842
 H         3.946765        -1.740667        -1.374203
 H         4.158752        -0.640271         0.960010
 H         3.522809         1.944771        -0.402444
 H         4.978156         1.158899        -0.922624
 H         3.310368         0.617188        -2.763650
