19
Iteration:  4261charge 0 multiplicity 1
 C        -0.122866         0.149973         0.345045
 C         1.262048        -0.100433        -0.248894
 C         1.783686        -1.612609        -0.824372
 C         3.170207        -1.037630        -1.107647
 C         3.564139        -0.107007         0.289686
 C         3.966818         0.911467        -0.659849
 C         2.937616         0.309406        -1.721285
 O         1.596082         0.774081        -1.359200
 O         2.275059         0.257471         0.837542
 H        -0.385870        -0.561176         1.138383
 H         0.039600         1.128042         0.776525
 H        -0.796033         0.129378        -0.476188
 H         1.588825        -2.530941         0.013788
 H         1.318142        -1.708729        -1.824630
 H         4.038357        -1.682827        -1.347818
 H         4.316509        -0.413662         1.053940
 H         3.808699         1.961715        -0.506711
 H         4.923570         0.613952        -1.050281
 H         3.073399         0.666459        -2.768572
