19
Iteration:  2550
 C        -0.104779         0.201359         0.320427
 C         1.254413        -0.082039        -0.240328
 C         1.782801        -1.539294        -0.709600
 C         3.144229        -1.070938        -1.034355
 C         3.555992        -0.209059         0.137686
 C         3.942280         0.959041        -0.733495
 C         2.967701         0.431922        -1.809875
 O         1.622405         0.739134        -1.359542
 O         2.283174         0.150526         0.892703
 H        -0.234971        -0.443014         1.193693
 H        -0.026944         1.231251         0.674302
 H        -0.883259         0.000209        -0.415313
 H         1.800923        -2.117497         0.311256
 H         1.177695        -2.067291        -1.475688
 H         3.872015        -1.758985        -1.325140
 H         4.183494        -0.666187         0.896798
 H         3.710210         1.941463        -0.242569
 H         5.022288         0.922417        -0.942632
 H         2.983646         0.693178        -2.841696
