19
Iteration:  1731charge 0 multiplicity 1
 C        -0.049000         0.085864         0.308404
 C         1.348935        -0.108217        -0.197161
 C         1.664135        -1.494248        -0.676050
 C         3.062532        -0.998890        -1.165665
 C         3.556397        -0.137351         0.163879
 C         4.059346         1.010544        -0.756260
 C         2.914150         0.388132        -1.744461
 O         1.640576         0.821664        -1.261850
 O         2.278983         0.059175         0.865888
 H        -0.425178        -0.408896         1.162556
 H        -0.505273         1.076104         0.446395
 H        -0.770908        -0.290840        -0.518951
 H         1.890739        -1.982901         0.261430
 H         1.037904        -1.924509        -1.465599
 H         3.683769        -1.712523        -1.624640
 H         4.237427        -0.723942         0.803385
 H         4.106753         2.033161        -0.396297
 H         5.003689         0.624240        -1.180936
 H         2.959127         0.532133        -2.805922
