19
Iteration:  4559
 C        -0.112718         0.102265         0.219044
 C         1.394421        -0.113232        -0.200637
 C         1.672537        -1.505805        -0.742400
 C         3.078381        -1.053809        -1.017361
 C         3.584561        -0.123180         0.206085
 C         3.918973         1.017213        -0.701576
 C         2.956042         0.336207        -1.730942
 O         1.681731         0.768307        -1.349306
 O         2.289480         0.150730         0.862432
 H        -0.201749        -0.226523         1.238114
 H        -0.276331         1.149950         0.274233
 H        -0.820030        -0.317628        -0.512797
 H         1.569689        -2.321425         0.100677
 H         1.015934        -1.878700        -1.615105
 H         3.824799        -1.777131        -1.473722
 H         4.354007        -0.350515         0.958738
 H         3.680181         2.044810        -0.378645
 H         4.975153         1.128789        -0.870298
 H         3.042683         0.190963        -2.782652
