19
Iteration:    18
 C        -0.224829         0.077794         0.486832
 C         1.219238        -0.009735        -0.223047
 C         1.740578        -1.533046        -0.741307
 C         3.155873        -1.072234        -1.160533
 C         3.610389        -0.226489         0.124518
 C         4.062526         0.945265        -0.772552
 C         2.973337         0.382471        -1.796454
 O         1.616542         1.007227        -1.176536
 O         2.297186         0.012339         0.737349
 H        -0.024180        -0.639544         1.325363
 H        -0.532106         1.108786         0.777155
 H        -0.979909        -0.379252        -0.196027
 H         1.836584        -2.053084         0.226600
 H         1.139944        -1.964611        -1.571923
 H         3.867831        -1.795098        -1.636607
 H         4.317159        -0.610324         0.893623
 H         3.758918         1.911641        -0.349272
 H         5.182942         1.060443        -0.975724
 H         2.974401         0.547462        -2.944153
