19
Iteration:  2754
 C        -0.095459         0.145742         0.256612
 C         1.246323        -0.095071        -0.199814
 C         1.774481        -1.430596        -0.677629
 C         3.162964        -1.033372        -1.083830
 C         3.514635        -0.206978         0.176729
 C         3.997054         0.898697        -0.757928
 C         2.949543         0.437800        -1.738619
 O         1.594761         0.722669        -1.262478
 O         2.298143         0.159581         0.827583
 H        -0.215848        -0.549980         1.118389
 H        -0.195038         1.211588         0.478953
 H        -0.762013        -0.098729        -0.605542
 H         1.848334        -2.012317         0.174166
 H         1.189716        -1.985566        -1.436597
 H         3.814576        -1.744707        -1.436260
 H         4.196154        -0.714801         0.898480
 H         3.926508         1.947758        -0.405661
 H         4.969620         0.720872        -1.158599
 H         2.952018         0.778394        -2.838327
