19
Iteration:   600charge 0 multiplicity 1
 C        -0.068358         0.145164         0.479732
 C         1.285593        -0.093121        -0.172876
 C         1.708552        -1.453231        -0.849519
 C         3.101333        -1.010378        -1.201971
 C         3.620244        -0.257514         0.152566
 C         3.985592         0.950049        -0.709189
 C         2.949302         0.436098        -1.717750
 O         1.557183         0.787798        -1.298251
 O         2.324140         0.073627         0.829273
 H        -0.049142        -0.378937         1.431163
 H        -0.111397         1.209716         0.748876
 H        -0.938586        -0.247178        -0.069164
 H         1.691999        -2.257625        -0.100300
 H         0.984902        -1.654905        -1.629789
 H         3.846112        -1.633963        -1.742367
 H         4.255625        -0.826508         0.800823
 H         3.801472         2.046761        -0.339598
 H         5.017368         0.903577        -1.122330
 H         3.019619         0.712069        -2.712481
