19
Iteration:  2156charge 0 multiplicity 1
 C        -0.109766         0.175101         0.332463
 C         1.299180        -0.094661        -0.241915
 C         1.700725        -1.435963        -0.723774
 C         3.107879        -1.022164        -1.135486
 C         3.583042        -0.144969         0.231991
 C         3.983525         1.003186        -0.722975
 C         2.948018         0.371970        -1.736729
 O         1.617104         0.733052        -1.347717
 O         2.277345         0.022567         0.888703
 H        -0.139885        -0.434900         1.203145
 H        -0.015944         1.202542         0.571528
 H        -0.680600         0.004833        -0.630113
 H         1.661371        -2.115718         0.154211
 H         1.142215        -1.764621        -1.595526
 H         3.793829        -1.768447        -1.578597
 H         4.347714        -0.467534         0.949324
 H         3.907486         2.007417        -0.426196
 H         5.002146         0.818585        -1.039929
 H         3.121320         0.456518        -2.770278
