19
Iteration:  1166
 C        -0.115106         0.185975         0.372946
 C         1.254800        -0.090411        -0.109785
 C         1.693344        -1.565523        -0.809560
 C         3.114002        -1.053763        -1.108864
 C         3.676544        -0.290941         0.177609
 C         3.971528         1.013850        -0.729890
 C         2.876407         0.493297        -1.691345
 O         1.589692         0.794193        -1.294626
 O         2.398471         0.080120         0.797709
 H        -0.316731        -0.333969         1.292058
 H        -0.303877         1.256116         0.505670
 H        -1.013935        -0.077521        -0.374368
 H         1.657856        -2.524314        -0.259106
 H         1.189732        -1.690209        -1.794265
 H         3.882400        -1.652593        -1.650190
 H         4.496804        -0.544427         0.858873
 H         3.747025         1.872850        -0.235429
 H         4.876725         0.972182        -1.244767
 H         2.925669         0.683260        -2.821518
