19
Iteration:  1119
 C        -0.046319         0.133730         0.459931
 C         1.279783        -0.156909        -0.124787
 C         1.749978        -1.519051        -0.860605
 C         3.120227        -1.004660        -1.107020
 C         3.563461        -0.189350         0.187227
 C         3.957014         0.939716        -0.788098
 C         2.981540         0.417875        -1.750846
 O         1.598842         0.828939        -1.272794
 O         2.280311         0.115403         0.804721
 H        -0.338663        -0.632927         1.215374
 H         0.018067         1.105634         0.986959
 H        -0.878117         0.206358        -0.256079
 H         1.529889        -2.351524        -0.153480
 H         1.164630        -1.639771        -1.773361
 H         3.880793        -1.655892        -1.570075
 H         4.209708        -0.805543         0.815150
 H         3.627680         1.884943        -0.408935
 H         4.920878         0.929415        -1.246719
 H         3.138443         0.656697        -2.773193
