19
Iteration:   722
 C        -0.076051         0.118005         0.425878
 C         1.334471        -0.150653        -0.114816
 C         1.682101        -1.426212        -0.827053
 C         3.083650        -0.964523        -1.199037
 C         3.631994        -0.256739         0.135854
 C         4.021364         0.941889        -0.708375
 C         2.873920         0.450231        -1.697965
 O         1.589615         0.728259        -1.286018
 O         2.319321         0.122971         0.830382
 H        -0.498108        -0.568941         1.120322
 H         0.054015         1.058735         0.952293
 H        -0.814880         0.145226        -0.453239
 H         1.665384        -2.299895        -0.170897
 H         1.016098        -1.621513        -1.665236
 H         3.651126        -1.697251        -1.756570
 H         4.393003        -0.628688         0.838941
 H         3.966003         2.098872        -0.431814
 H         5.040107         0.766058        -1.106398
 H         2.974062         0.842622        -2.673453
