19
Iteration:   502
 C         0.046152         0.165270         0.403504
 C         1.335397        -0.168956        -0.228671
 C         1.651101        -1.447155        -0.863393
 C         3.141870        -1.029505        -1.081608
 C         3.645240        -0.199189         0.147299
 C         3.904901         0.963477        -0.686613
 C         2.862205         0.395795        -1.704278
 O         1.496358         0.790056        -1.275422
 O         2.408572         0.063722         0.828820
 H        -0.428894        -0.599079         1.044572
 H         0.115896         1.139632         0.903342
 H        -0.726397         0.431143        -0.333967
 H         1.355409        -2.332882        -0.296950
 H         1.205079        -1.287445        -1.820998
 H         3.956370        -1.707010        -1.467143
 H         4.309600        -0.623908         0.870084
 H         3.540428         1.870530        -0.092226
 H         4.828509         0.944068        -1.166231
 H         2.932345         0.604165        -2.793350
