19
Iteration:  2289charge 0 multiplicity 1
 C        -0.094764         0.216296         0.263104
 C         1.243845        -0.053631        -0.214733
 C         1.760992        -1.437630        -0.738852
 C         3.196252        -1.043688        -1.017561
 C         3.653782        -0.213514         0.198005
 C         3.945190         0.962675        -0.720807
 C         2.877341         0.390120        -1.696493
 O         1.554403         0.684842        -1.308920
 O         2.350763         0.086786         0.817290
 H        -0.471359        -0.243137         1.212716
 H        -0.256346         1.325887         0.151973
 H        -0.767288        -0.168247        -0.546191
 H         1.671365        -2.134651         0.130853
 H         1.161309        -1.727014        -1.650792
 H         3.854818        -1.719695        -1.559332
 H         4.319378        -0.672441         0.955600
 H         3.717859         1.869933        -0.150190
 H         4.872374         0.968670        -1.265908
 H         3.032918         0.565013        -2.746702
