19
Iteration:  3133
 C        -0.032964         0.099462         0.312248
 C         1.288146        -0.122316        -0.161635
 C         1.697782        -1.435358        -0.662112
 C         3.113385        -1.013157        -0.967536
 C         3.559474        -0.221203         0.156643
 C         4.005176         0.985666        -0.713853
 C         2.901080         0.401579        -1.744322
 O         1.639629         0.810059        -1.412348
 O         2.247145         0.090937         0.765650
 H        -0.209591        -0.190395         1.390933
 H        -0.290527         1.228070         0.160055
 H        -0.858995        -0.394080        -0.192691
 H         1.766224        -2.264714         0.094683
 H         1.525505        -1.925425        -1.663144
 H         3.942985        -1.688263        -1.360970
 H         4.153706        -0.621497         1.012691
 H         3.769546         2.040341        -0.473645
 H         5.079454         0.868035        -0.921646
 H         3.151101         0.459670        -2.801716
