19
Iteration:  3476
 C        -0.087938         0.182702         0.297433
 C         1.314509        -0.100475        -0.219592
 C         1.715064        -1.498685        -0.679641
 C         3.179911        -1.014537        -1.009377
 C         3.530618        -0.169959         0.197519
 C         4.001960         1.051177        -0.712741
 C         2.957930         0.369198        -1.751105
 O         1.608449         0.741540        -1.360194
 O         2.221852         0.088539         0.777286
 H        -0.103467        -0.519125         1.189818
 H        -0.029403         1.193483         0.787027
 H        -0.805868        -0.228898        -0.383376
 H         1.700822        -2.422263        -0.040949
 H         1.218595        -1.932900        -1.645797
 H         3.867328        -1.819022        -1.574013
 H         4.128395        -0.486343         1.093057
 H         3.876673         2.016485        -0.186978
 H         5.000854         0.879709        -1.052640
 H         3.118899         0.469782        -2.799037
