19
Iteration:  4894
 C        -0.062327         0.144425         0.152620
 C         1.342526        -0.019871        -0.238834
 C         1.724743        -1.465114        -0.668224
 C         3.116265        -1.110993        -1.007415
 C         3.627624        -0.187105         0.263874
 C         3.895894         0.965290        -0.736044
 C         2.899755         0.319988        -1.754839
 O         1.619543         0.763251        -1.364063
 O         2.331419         0.146825         0.906265
 H        -0.209484        -0.320989         1.118759
 H        -0.120914         1.169320         0.440904
 H        -0.772088        -0.182634        -0.616984
 H         1.696211        -2.408467         0.028907
 H         1.010979        -1.802323        -1.637399
 H         3.763294        -1.760635        -1.540585
 H         4.163052        -0.294307         1.221212
 H         3.504207         1.900920        -0.325983
 H         4.929960         1.228113        -1.056307
 H         2.897522         0.411199        -2.904378
