19
Iteration:   866charge 0 multiplicity 1
 C        -0.083130         0.203988         0.384571
 C         1.272521        -0.120485        -0.257025
 C         1.766251        -1.531745        -0.828562
 C         3.153382        -1.034610        -1.087721
 C         3.665068        -0.236821         0.153018
 C         3.956083         0.930533        -0.793561
 C         2.860972         0.430982        -1.745092
 O         1.513284         0.835445        -1.174719
 O         2.373364         0.047113         0.849450
 H        -0.331107        -0.657117         1.138607
 H         0.000146         1.211993         0.832121
 H        -0.962445         0.360525        -0.301247
 H         1.609634        -2.343007        -0.137927
 H         1.216262        -1.600054        -1.814173
 H         3.963971        -1.632379        -1.528795
 H         4.387119        -0.641716         0.924288
 H         3.807809         1.943192        -0.294639
 H         4.970684         1.103793        -1.261544
 H         2.665489         0.688698        -2.721671
