19
Iteration:  2883
 C        -0.091842         0.115352         0.254095
 C         1.268265        -0.107166        -0.174306
 C         1.753604        -1.447451        -0.722913
 C         3.168507        -1.056083        -0.991896
 C         3.608852        -0.205375         0.165544
 C         4.002811         0.978939        -0.775571
 C         2.927764         0.399978        -1.722847
 O         1.612333         0.730323        -1.302541
 O         2.263934         0.145993         0.841006
 H        -0.243640        -0.301836         1.252946
 H        -0.382333         1.127546         0.305022
 H        -0.884600        -0.305573        -0.365226
 H         1.303772        -2.161309        -0.009715
 H         1.252089        -1.449939        -1.745237
 H         3.804560        -1.700036        -1.397991
 H         4.353908        -0.524842         0.871237
 H         3.804373         2.033158        -0.518632
 H         5.031619         0.807129        -1.072372
 H         2.894726         0.575532        -2.782427
