19
Iteration:  4541charge 0 multiplicity 1
 C        -0.089543         0.188560         0.189771
 C         1.290635        -0.118645        -0.257829
 C         1.778272        -1.498286        -0.714464
 C         3.204390        -1.067246        -0.938600
 C         3.566988        -0.202834         0.259738
 C         3.951020         0.968534        -0.760014
 C         2.929860         0.357664        -1.751650
 O         1.535817         0.768854        -1.300293
 O         2.323407         0.157619         0.861486
 H        -0.332801        -0.191798         1.196083
 H        -0.416579         1.237977         0.091306
 H        -0.680595        -0.462975        -0.429431
 H         1.500073        -2.298619        -0.078147
 H         1.150351        -1.713890        -1.680914
 H         3.967088        -1.711318        -1.347407
 H         4.279474        -0.700461         0.929334
 H         3.720158         1.986748        -0.453992
 H         4.960635         0.947746        -1.231981
 H         3.132759         0.811413        -2.756617
