19
Iteration:  2076charge 0 multiplicity 1
 C        -0.083435         0.212801         0.244587
 C         1.319351        -0.159456        -0.127086
 C         1.744908        -1.448786        -0.753788
 C         3.115775        -0.996069        -1.162825
 C         3.601591        -0.250108         0.191949
 C         3.994365         0.957462        -0.715507
 C         2.910836         0.404311        -1.742703
 O         1.574837         0.728725        -1.255476
 O         2.294298         0.134422         0.871389
 H        -0.405984        -0.457851         1.120454
 H        -0.092150         1.364663         0.383589
 H        -0.782360        -0.062986        -0.644903
 H         1.738400        -2.219418        -0.009763
 H         1.086379        -1.747893        -1.528411
 H         3.855711        -1.689334        -1.524525
 H         4.293093        -0.674506         0.945966
 H         3.686385         1.867489        -0.213201
 H         4.931659         0.873898        -1.217961
 H         3.148494         0.554805        -2.841412
