19
Iteration:  2576charge 0 multiplicity 1
 C        -0.018864         0.218684         0.301743
 C         1.304419        -0.126214        -0.118980
 C         1.708830        -1.512102        -0.795578
 C         3.117361        -1.045440        -1.027384
 C         3.636116        -0.141379         0.233941
 C         3.948093         1.004615        -0.685618
 C         2.916044         0.387325        -1.681674
 O         1.548603         0.635531        -1.376396
 O         2.310920         0.179489         0.737019
 H        -0.385304        -0.596887         0.950855
 H         0.019625         1.113093         0.948911
 H        -0.584110         0.190844        -0.627601
 H         1.693746        -2.178821        -0.046003
 H         1.038197        -1.660215        -1.603894
 H         3.789161        -1.770903        -1.620896
 H         4.101230        -0.550050         1.119177
 H         3.859281         1.982473        -0.261726
 H         4.965226         0.795240        -1.035609
 H         3.012603         0.469519        -2.778463
