19
Iteration:  4578
 C        -0.129920         0.141790         0.331856
 C         1.262461        -0.071604        -0.247713
 C         1.722879        -1.452418        -0.670155
 C         3.232012        -1.025080        -1.068335
 C         3.477451        -0.200358         0.245786
 C         3.969169         1.002212        -0.784370
 C         3.069469         0.374281        -1.764185
 O         1.630986         0.705243        -1.351649
 O         2.237954         0.126605         0.846979
 H        -0.208823        -0.513868         1.237665
 H        -0.323322         1.239738         0.553551
 H        -0.801681        -0.116150        -0.567313
 H         1.729993        -2.252554         0.077077
 H         1.351637        -1.793555        -1.542310
 H         3.953648        -1.829877        -1.302206
 H         4.019785        -0.628185         1.110694
 H         3.673875         2.066277        -0.459146
 H         5.041233         0.938516        -1.136855
 H         3.024861         0.615421        -2.877305
