19
Iteration:  3424charge 0 multiplicity 1
 C        -0.145562         0.099676         0.256436
 C         1.290992        -0.098327        -0.228492
 C         1.692909        -1.461562        -0.663513
 C         3.161493        -0.994803        -1.052964
 C         3.553818        -0.132903         0.229468
 C         4.029826         0.976081        -0.789425
 C         2.949930         0.366857        -1.702954
 O         1.583382         0.758717        -1.300813
 O         2.284053         0.090135         0.810391
 H        -0.529686        -0.776504         0.752580
 H         0.046013         1.052765         0.788970
 H        -0.603878         0.274201        -0.696439
 H         1.804325        -2.187227         0.208901
 H         1.208900        -2.091910        -1.483375
 H         3.963281        -1.770434        -1.402344
 H         4.235714        -0.264890         1.100685
 H         3.992829         2.094768        -0.510291
 H         5.086563         0.729915        -1.154486
 H         3.116503         0.559668        -2.804098
