19
Iteration:  1533
 C        -0.029613         0.248899         0.300476
 C         1.302242        -0.094079        -0.173988
 C         1.733671        -1.565224        -0.774647
 C         3.144867        -1.030502        -1.101733
 C         3.617318        -0.269789         0.131433
 C         3.910717         0.967645        -0.692069
 C         2.881554         0.497477        -1.740013
 O         1.596306         0.728050        -1.235685
 O         2.322368         0.091373         0.813495
 H        -0.377233        -0.337097         1.254452
 H        -0.114542         1.331787         0.589713
 H        -0.984656         0.065329        -0.396170
 H         1.687408        -2.375949        -0.075879
 H         1.087874        -1.838639        -1.630517
 H         3.827628        -1.633850        -1.743869
 H         4.412786        -0.628672         0.769774
 H         3.706489         1.887747        -0.121732
 H         4.934833         1.017274        -0.959936
 H         3.000748         0.606602        -2.787953
