19
Iteration:   523charge 0 multiplicity 1
 C        -0.059835         0.200324         0.423752
 C         1.297738        -0.142831        -0.069212
 C         1.717122        -1.555213        -0.839479
 C         3.036595        -1.004662        -1.247631
 C         3.563746        -0.279704         0.119492
 C         4.014883         1.020415        -0.725158
 C         2.919292         0.495314        -1.690750
 O         1.612569         0.707106        -1.263905
 O         2.355727         0.127914         0.852279
 H        -0.455071        -0.654589         1.007999
 H        -0.150814         1.187059         0.853562
 H        -0.575183         0.321321        -0.493580
 H         1.757958        -2.379349        -0.130477
 H         1.099213        -1.717093        -1.709760
 H         3.837785        -1.512213        -1.831624
 H         4.111094        -0.700576         0.899614
 H         3.744485         1.964122        -0.186274
 H         4.942514         0.862542        -1.227845
 H         2.930277         0.723396        -2.708257
