19
Iteration:  3810charge 0 multiplicity 1
 C        -0.039726         0.127203         0.309153
 C         1.308402        -0.137602        -0.240958
 C         1.720580        -1.431508        -0.786510
 C         3.136860        -1.019023        -1.055984
 C         3.570617        -0.133498         0.259506
 C         3.986550         0.986729        -0.725217
 C         2.945688         0.372219        -1.675116
 O         1.611921         0.684734        -1.346958
 O         2.257013         0.179498         0.808835
 H        -0.338564        -0.789042         0.797082
 H        -0.240619         0.884550         1.006701
 H        -0.658427         0.075255        -0.492057
 H         1.645922        -2.226304         0.038245
 H         0.945744        -1.644871        -1.528450
 H         3.900635        -1.672820        -1.543649
 H         4.022312        -0.600573         1.132579
 H         3.868531         2.027899        -0.351659
 H         4.992736         0.849678        -1.151130
 H         3.019735         0.359235        -2.783134
