19
Iteration:  1965charge 0 multiplicity 1
 C        -0.143782         0.121622         0.277860
 C         1.381819        -0.108071        -0.133627
 C         1.735991        -1.479250        -0.773067
 C         3.108077        -1.035466        -1.082518
 C         3.541650        -0.212968         0.200007
 C         3.965470         0.913512        -0.835199
 C         2.942721         0.432497        -1.823427
 O         1.657023         0.791357        -1.282683
 O         2.273482         0.127407         0.978446
 H        -0.412479        -0.530267         1.223307
 H        -0.327772         1.225738         0.614952
 H        -0.829091        -0.082373        -0.520897
 H         1.727415        -2.220997        -0.027405
 H         1.230393        -1.661189        -1.651785
 H         3.910016        -1.681387        -1.478217
 H         4.281363        -0.654143         0.876960
 H         3.785923         1.968591        -0.545580
 H         4.975758         0.891727        -1.103720
 H         2.995326         0.722284        -2.938900
