19
Iteration:  1408
 C         0.025879         0.196007         0.254833
 C         1.324384        -0.097185        -0.170454
 C         1.723868        -1.551167        -0.817516
 C         3.122980        -1.058356        -1.046529
 C         3.583431        -0.278109         0.177811
 C         3.942427         1.064200        -0.748632
 C         2.864422         0.448418        -1.664069
 O         1.549017         0.782046        -1.212160
 O         2.360075         0.052668         0.813423
 H        -0.280589        -0.272112         1.269508
 H        -0.124384         1.308307         0.466967
 H        -0.671583        -0.093665        -0.526455
 H         1.321757        -2.311031        -0.114387
 H         1.215077        -1.738619        -1.805887
 H         3.779682        -1.608806        -1.694266
 H         4.284746        -0.706757         0.951817
 H         3.673045         2.033829        -0.307734
 H         4.891135         0.950026        -1.336226
 H         2.927160         0.655496        -2.806546
