19
Iteration:  2523
 C        -0.087565         0.132526         0.281528
 C         1.281346        -0.085550        -0.251948
 C         1.692387        -1.517580        -0.759130
 C         3.096346        -1.052467        -1.006069
 C         3.603724        -0.117584         0.241171
 C         3.984435         0.979717        -0.824039
 C         2.954741         0.334305        -1.693245
 O         1.614971         0.796900        -1.306934
 O         2.313398         0.107956         0.893656
 H        -0.191463        -0.361970         1.284748
 H        -0.033425         1.241776         0.220464
 H        -0.854179        -0.276659        -0.412923
 H         1.497049        -2.421999        -0.026478
 H         1.037970        -1.739347        -1.687187
 H         3.885443        -1.685184        -1.574213
 H         4.284403        -0.420587         1.089071
 H         3.846180         2.028902        -0.614922
 H         5.043837         0.875519        -1.134203
 H         2.932761         0.463892        -2.850365
