19
Iteration:  4879
 C        -0.063859         0.190538         0.230926
 C         1.338177        -0.116994        -0.204878
 C         1.683285        -1.528817        -0.672363
 C         3.104107        -1.037363        -1.003210
 C         3.525282        -0.103981         0.232097
 C         3.940465         1.022919        -0.782871
 C         2.986130         0.341758        -1.741305
 O         1.621669         0.754069        -1.362023
 O         2.297061         0.088165         0.894685
 H        -0.346470        -0.674049         0.867997
 H        -0.292324         1.271452         0.480932
 H        -0.626804        -0.059947        -0.697273
 H         1.549278        -2.076346         0.242193
 H         1.133854        -1.876757        -1.595930
 H         3.924953        -1.785074        -1.300826
 H         4.412077        -0.531952         0.752993
 H         3.856565         2.136664        -0.620309
 H         4.949952         0.692301        -1.070411
 H         3.181431         0.473687        -2.742923
