19
Iteration:  3629
 C        -0.143689         0.177575         0.309367
 C         1.318644        -0.132637        -0.210754
 C         1.734319        -1.576576        -0.703370
 C         3.122585        -1.012636        -1.086681
 C         3.544350        -0.157340         0.196700
 C         3.965295         1.042527        -0.724448
 C         3.026140         0.362361        -1.771455
 O         1.639529         0.769455        -1.388349
 O         2.277137         0.102186         0.895846
 H        -0.515628        -0.690263         0.934444
 H        -0.218712         1.136603         0.927512
 H        -0.802872         0.275483        -0.597678
 H         1.837502        -2.053554         0.240867
 H         1.209857        -2.038870        -1.541789
 H         3.801332        -1.811288        -1.487640
 H         4.292922        -0.219014         0.953742
 H         3.497590         1.980637        -0.410079
 H         4.988142         1.004059        -0.883975
 H         3.040991         0.291423        -2.835177
