19
Iteration:  3845charge 0 multiplicity 1
 C        -0.141503         0.141885         0.328599
 C         1.286901        -0.151861        -0.207551
 C         1.751005        -1.534626        -0.741607
 C         3.193812        -1.016178        -1.013826
 C         3.525863        -0.159941         0.250655
 C         4.036478         0.993329        -0.754390
 C         2.911658         0.392455        -1.687568
 O         1.635095         0.799926        -1.349863
 O         2.246738         0.107082         0.773533
 H        -0.314154        -0.692310         0.945469
 H        -0.286587         1.153857         0.754500
 H        -0.837057         0.144203        -0.521029
 H         1.936213        -2.179199         0.109537
 H         1.036135        -1.974091        -1.466363
 H         3.914643        -1.574294        -1.664511
 H         4.249305        -0.489745         0.978487
 H         3.890355         2.060488        -0.394959
 H         5.036859         0.872082        -1.279297
 H         3.099185         0.448133        -2.796591
