19
Iteration:  1518charge 0 multiplicity 1
 C        -0.007858         0.222679         0.305193
 C         1.295050        -0.168251        -0.217695
 C         1.730783        -1.538772        -0.717128
 C         3.090616        -1.015174        -1.141282
 C         3.592883        -0.217866         0.179773
 C         3.943640         1.009841        -0.711205
 C         2.903878         0.413673        -1.639968
 O         1.543010         0.860107        -1.288576
 O         2.349606        -0.027004         0.787959
 H        -0.304073        -0.413873         1.194038
 H         0.128231         1.314370         0.438416
 H        -0.606153         0.074503        -0.557786
 H         1.798274        -2.086507         0.262179
 H         1.101624        -1.930885        -1.516033
 H         3.791823        -1.741782        -1.571215
 H         4.129407        -0.711576         1.010447
 H         3.874070         2.106453        -0.393459
 H         4.972545         1.070526        -1.306672
 H         2.849378         0.771689        -2.706785
