19
Iteration:  4221
 C        -0.146277         0.119611         0.236611
 C         1.333041        -0.064869        -0.218106
 C         1.716163        -1.523490        -0.657583
 C         3.124217        -1.052905        -1.045123
 C         3.561108        -0.155716         0.236755
 C         3.911481         0.973631        -0.729600
 C         3.013245         0.376526        -1.793004
 O         1.609356         0.767139        -1.381073
 O         2.332840         0.130456         0.911432
 H        -0.514782        -0.751823         0.802698
 H        -0.236720         1.039093         0.871991
 H        -0.813972         0.352334        -0.627548
 H         1.985608        -2.075693         0.175472
 H         1.112598        -1.871400        -1.565778
 H         3.745281        -1.668993        -1.716652
 H         4.265181        -0.521598         0.975750
 H         3.705822         2.058985        -0.450065
 H         4.998362         0.759682        -0.917810
 H         3.129924         0.505920        -2.856095
