19
Iteration:  3775charge 0 multiplicity 1
 C        -0.084496         0.184770         0.265145
 C         1.293856        -0.083551        -0.299362
 C         1.792214        -1.458837        -0.713359
 C         3.196790        -1.043887        -1.090045
 C         3.562058        -0.208055         0.262080
 C         3.919486         0.973448        -0.733736
 C         2.909527         0.380930        -1.749222
 O         1.602283         0.742847        -1.289601
 O         2.266589         0.110718         0.851464
 H        -0.135538        -0.646448         0.987020
 H        -0.183516         1.204016         0.579939
 H        -0.790125         0.150845        -0.547187
 H         1.581276        -2.092729         0.248745
 H         1.271490        -1.959634        -1.604104
 H         3.997662        -1.749296        -1.272122
 H         4.291930        -0.628016         1.041595
 H         3.659779         1.937889        -0.312863
 H         4.967967         1.029406        -1.035864
 H         2.969167         0.421040        -2.839292
