19
Iteration:  1590
 C        -0.083003         0.064297         0.375588
 C         1.264657        -0.074553        -0.241211
 C         1.748846        -1.547385        -0.804184
 C         3.119722        -1.040032        -1.067463
 C         3.517091        -0.244932         0.190660
 C         4.006810         0.922539        -0.792041
 C         2.972663         0.417001        -1.753195
 O         1.616999         0.929360        -1.226057
 O         2.289116         0.164104         0.811643
 H        -0.050453        -0.681591         1.210669
 H        -0.156231         1.093890         0.836192
 H        -1.022440        -0.159077        -0.391363
 H         1.840623        -2.155029         0.124424
 H         1.047431        -1.939212        -1.577120
 H         3.855435        -1.719659        -1.460804
 H         4.181270        -0.770235         0.943549
 H         3.883647         1.934385        -0.415590
 H         5.049400         0.741179        -1.107190
 H         2.918471         0.468237        -2.896104
