19
Iteration:  2751
 C        -0.104447         0.157403         0.276059
 C         1.273778        -0.092265        -0.178120
 C         1.805616        -1.446347        -0.698294
 C         3.141273        -1.014965        -1.088067
 C         3.492297        -0.214687         0.194476
 C         4.000518         0.904831        -0.755677
 C         2.947553         0.400112        -1.750000
 O         1.580934         0.724659        -1.263100
 O         2.291724         0.168568         0.820981
 H        -0.204626        -0.540600         1.111163
 H        -0.204227         1.236557         0.370117
 H        -0.665210        -0.114361        -0.648157
 H         1.880299        -2.079992         0.280390
 H         1.162585        -1.886073        -1.549870
 H         3.849823        -1.711628        -1.563298
 H         4.216129        -0.658326         0.896793
 H         3.923946         1.914971        -0.323557
 H         4.988566         0.697097        -1.198778
 H         3.014124         0.784455        -2.767315
