19
Iteration:  1814
 C        -0.098466         0.200379         0.347935
 C         1.363733        -0.046606        -0.277525
 C         1.766259        -1.532412        -0.681037
 C         3.123018        -0.974283        -1.103263
 C         3.574970        -0.208681         0.232663
 C         3.993344         0.946969        -0.706562
 C         2.886223         0.345680        -1.670613
 O         1.516450         0.823213        -1.343062
 O         2.308089         0.058703         0.755541
 H        -0.155240        -0.710045         1.004697
 H         0.057901         1.116690         0.936330
 H        -0.768769         0.196756        -0.385889
 H         1.762784        -2.306922         0.097910
 H         1.197606        -1.968495        -1.502395
 H         3.874991        -1.595426        -1.624014
 H         4.197311        -0.725390         0.958419
 H         3.719175         2.001521        -0.444367
 H         5.002362         0.883982        -1.100636
 H         3.211594         0.488492        -2.707355
