19
Iteration:  4155
 C        -0.059742         0.159060         0.341736
 C         1.292165        -0.102537        -0.203566
 C         1.808685        -1.460748        -0.759558
 C         3.171465        -1.002375        -1.005585
 C         3.516230        -0.252131         0.196579
 C         3.946166         0.964625        -0.743426
 C         2.995397         0.395700        -1.798516
 O         1.610915         0.701591        -1.347979
 O         2.191612         0.171760         0.845229
 H        -0.054824        -0.398280         1.323552
 H        -0.253504         1.286156         0.510957
 H        -0.951328        -0.180967        -0.262407
 H         1.608894        -2.163803         0.103782
 H         1.123070        -1.749597        -1.751846
 H         3.930382        -1.678259        -1.543810
 H         4.273905        -0.538928         0.932159
 H         3.816999         2.017170        -0.302360
 H         5.087871         0.833040        -0.886002
 H         3.137379         0.441543        -2.879265
