19
Iteration:  2422
 C        -0.082685         0.230094         0.271755
 C         1.320067        -0.141748        -0.186293
 C         1.740634        -1.523576        -0.831956
 C         3.151051        -1.041304        -0.983833
 C         3.520181        -0.130566         0.175507
 C         3.938657         0.987000        -0.794730
 C         2.948090         0.340084        -1.698644
 O         1.600032         0.669488        -1.255958
 O         2.335870         0.169006         0.867297
 H        -0.310848        -0.572109         1.103030
 H        -0.002150         1.237472         0.909385
 H        -0.656723         0.279895        -0.676596
 H         1.287093        -2.418865        -0.331618
 H         1.213818        -1.576236        -1.840266
 H         3.991136        -1.626440        -1.347447
 H         4.186035        -0.476635         0.981312
 H         3.632949         2.027736        -0.579330
 H         4.973820         0.836149        -1.071451
 H         2.887794         0.491251        -2.809311
