19
Iteration:  3077
 C        -0.068332         0.213681         0.291169
 C         1.280095        -0.143487        -0.222899
 C         1.686666        -1.520640        -0.752071
 C         3.149829        -1.046501        -1.045479
 C         3.604404        -0.164338         0.275866
 C         4.010461         1.008284        -0.783262
 C         2.924737         0.377910        -1.694972
 O         1.569812         0.750392        -1.332555
 O         2.280809         0.084853         0.839799
 H        -0.344461        -0.220915         1.305590
 H        -0.067336         1.314698         0.368277
 H        -0.665995        -0.131677        -0.562351
 H         1.761146        -2.326083        -0.049265
 H         1.290432        -1.891757        -1.674782
 H         3.919092        -1.505122        -1.567429
 H         4.136633        -0.238373         1.195241
 H         3.866370         2.052985        -0.478575
 H         4.996268         0.838334        -1.144628
 H         3.046426         0.303029        -2.790812
