19
Iteration:  2071
 C        -0.095642         0.227117         0.253622
 C         1.331608        -0.133074        -0.155159
 C         1.755891        -1.467722        -0.765411
 C         3.148218        -1.007998        -1.160784
 C         3.599247        -0.246759         0.244232
 C         3.956459         0.934104        -0.732241
 C         2.901635         0.362250        -1.701798
 O         1.570103         0.751778        -1.239542
 O         2.331360         0.132844         0.832167
 H        -0.608367        -0.286837         1.047296
 H        -0.246096         1.245172         0.457819
 H        -0.756230         0.020228        -0.525522
 H         1.707824        -2.384412        -0.109792
 H         1.107654        -1.715152        -1.670907
 H         3.892965        -1.685187        -1.632602
 H         4.330434        -0.588130         0.979399
 H         3.584760         1.900887        -0.284772
 H         4.979235         1.018217        -1.236950
 H         3.025487         0.565650        -2.754502
