19
Iteration:   489charge 0 multiplicity 1
 C        -0.039462         0.186484         0.471644
 C         1.302872        -0.046056        -0.221441
 C         1.731064        -1.474337        -0.850794
 C         3.145315        -1.058081        -1.054546
 C         3.590211        -0.261014         0.186369
 C         3.886429         1.021088        -0.769236
 C         2.883406         0.425862        -1.732812
 O         1.583941         0.854421        -1.329724
 O         2.343774        -0.049607         0.842596
 H        -0.198129        -0.696984         1.179628
 H         0.091379         1.017595         1.146751
 H        -0.770320         0.201060        -0.258339
 H         1.521073        -2.301428        -0.149899
 H         1.246651        -1.872319        -1.774193
 H         3.802217        -1.655321        -1.712423
 H         4.357655        -0.542325         0.829309
 H         3.749453         2.056508        -0.428518
 H         4.948640         1.116925        -1.113350
 H         3.015127         0.531811        -2.740280
