19
Iteration:  3288charge 0 multiplicity 1
 C        -0.106352         0.108373         0.251225
 C         1.291203        -0.061429        -0.226378
 C         1.715853        -1.504286        -0.727906
 C         3.153391        -1.105456        -1.067531
 C         3.617406        -0.171460         0.197650
 C         3.927118         0.960231        -0.735705
 C         2.939192         0.368386        -1.749019
 O         1.663069         0.775241        -1.314230
 O         2.293207         0.204618         0.870050
 H        -0.291442        -0.439019         1.186935
 H        -0.534714         1.066921         0.490406
 H        -0.914528        -0.360290        -0.420729
 H         1.502551        -2.200220         0.107028
 H         0.929648        -1.790871        -1.484309
 H         3.834175        -1.861877        -1.378037
 H         4.373037        -0.281047         0.971556
 H         3.711597         1.939382        -0.364085
 H         4.977593         0.897989        -0.995720
 H         3.269949         0.484305        -2.781219
