19
Iteration:   371
 C        -0.080592         0.253828         0.492226
 C         1.294651        -0.137010        -0.204303
 C         1.719150        -1.535991        -0.836563
 C         3.155411        -1.002950        -1.028560
 C         3.621866        -0.196454         0.148923
 C         3.965741         0.974666        -0.791533
 C         2.920269         0.506208        -1.713176
 O         1.495836         0.782042        -1.316722
 O         2.367299        -0.054408         0.826934
 H        -0.310893        -0.495036         1.367078
 H        -0.022229         1.290038         0.886974
 H        -0.842517         0.116310        -0.239471
 H         1.607153        -2.534228        -0.396612
 H         1.217750        -1.574735        -1.828633
 H         3.888958        -1.627467        -1.617066
 H         4.287312        -0.537104         0.923476
 H         3.970401         1.982029        -0.354770
 H         4.872213         0.872970        -1.310390
 H         2.968905         0.773342        -2.860460
