19
Iteration:  2749charge 0 multiplicity 1
 C        -0.109367         0.161428         0.283105
 C         1.301248        -0.092187        -0.169447
 C         1.813909        -1.466589        -0.708988
 C         3.125765        -1.001968        -1.091637
 C         3.489352        -0.218423         0.204193
 C         4.001128         0.911594        -0.751554
 C         2.943002         0.379354        -1.753460
 O         1.573418         0.730803        -1.268742
 O         2.286793         0.173996         0.819763
 H        -0.239870        -0.510374         1.118116
 H        -0.222902         1.257206         0.341782
 H        -0.622542        -0.129298        -0.635835
 H         1.885846        -2.124061         0.277598
 H         1.174333        -1.809373        -1.563279
 H         3.882590        -1.699315        -1.632094
 H         4.216044        -0.617426         0.904351
 H         3.926157         1.898318        -0.289044
 H         5.010624         0.681992        -1.211845
 H         3.048044         0.759451        -2.734400
