19
Iteration:  1300charge 0 multiplicity 1
 C        -0.056890         0.177091         0.342031
 C         1.342982        -0.094387        -0.177145
 C         1.738352        -1.593055        -0.761303
 C         3.110583        -1.073419        -1.157035
 C         3.514298        -0.199622         0.195862
 C         3.925187         0.976628        -0.744128
 C         2.918730         0.409970        -1.775843
 O         1.617233         0.881476        -1.192762
 O         2.324629         0.068500         0.807382
 H        -0.383510        -0.808403         0.974780
 H        -0.042416         1.191413         0.972313
 H        -0.591141         0.180390        -0.681656
 H         1.775743        -2.305625         0.061181
 H         1.012867        -1.907668        -1.518886
 H         3.803820        -1.772910        -1.595211
 H         4.344458        -0.508732         0.867337
 H         3.741838         2.066436        -0.614395
 H         4.972726         0.951864        -0.966756
 H         2.983386         0.737419        -2.863153
