19
Iteration:  4976charge 0 multiplicity 1
 C        -0.145980         0.090475         0.241187
 C         1.289824        -0.135338        -0.212065
 C         1.598720        -1.490200        -0.706510
 C         3.125751        -1.074708        -1.013919
 C         3.655967        -0.114799         0.203629
 C         3.960892         1.028019        -0.730799
 C         3.022193         0.290492        -1.747014
 O         1.693598         0.703826        -1.327475
 O         2.288125         0.229638         0.865951
 H        -0.324241        -0.420645         1.238787
 H        -0.292745         1.224695         0.267588
 H        -0.820066        -0.105498        -0.661426
 H         1.550370        -2.259941        -0.000926
 H         1.061286        -1.654152        -1.537048
 H         3.817547        -1.774298        -1.601677
 H         4.221704        -0.502053         1.120694
 H         3.500380         1.984816        -0.380673
 H         4.956022         1.241254        -1.097553
 H         3.146450         0.462508        -2.838971
