19
Iteration:  2630charge 0 multiplicity 1
 C        -0.062752         0.096802         0.265234
 C         1.316008        -0.137954        -0.134361
 C         1.724478        -1.490459        -0.649671
 C         3.135359        -1.064988        -1.012180
 C         3.520645        -0.136305         0.140045
 C         3.972071         0.984941        -0.811336
 C         2.969766         0.424719        -1.801793
 O         1.649480         0.761926        -1.292609
 O         2.262369         0.142303         0.839086
 H        -0.283509        -0.783464         0.894056
 H        -0.257304         1.106859         0.752870
 H        -0.730973         0.250930        -0.617532
 H         1.436876        -2.245104         0.170382
 H         1.095849        -1.581780        -1.545561
 H         3.915699        -1.888350        -1.306444
 H         4.075657        -0.621847         0.943380
 H         3.853679         1.983586        -0.437931
 H         5.002683         0.749823        -1.135360
 H         3.004415         0.703250        -2.876438
