19
Iteration:  1655
 C        -0.060079         0.238046         0.381568
 C         1.359960        -0.141494        -0.177581
 C         1.744749        -1.477796        -0.781704
 C         3.157243        -1.047312        -1.143000
 C         3.500426        -0.228535         0.131467
 C         3.910530         1.054984        -0.733390
 C         2.932928         0.352187        -1.776244
 O         1.678147         0.779349        -1.246895
 O         2.240550         0.032714         0.811714
 H        -0.444046        -0.419723         1.173505
 H        -0.081443         1.244087         0.884808
 H        -1.104436         0.275746        -0.172042
 H         2.000595        -2.269698        -0.060561
 H         1.116891        -1.945756        -1.539894
 H         3.880442        -1.757744        -1.483417
 H         4.244480        -0.395208         0.935062
 H         3.746831         2.032249        -0.347110
 H         4.973427         1.014844        -0.845374
 H         3.026935         0.484353        -2.864824
