19
Iteration:   572charge 0 multiplicity 1
 C        -0.064464         0.057904         0.424323
 C         1.331346        -0.085364        -0.063726
 C         1.614180        -1.480608        -0.915999
 C         3.058517        -1.031498        -1.112990
 C         3.604514        -0.205359         0.120310
 C         3.990113         0.961890        -0.775684
 C         2.926222         0.406919        -1.738455
 O         1.648028         0.845799        -1.238319
 O         2.337236         0.120772         0.859088
 H        -0.060931        -0.678340         1.276664
 H        -0.300186         1.080935         0.786426
 H        -0.819858        -0.234644        -0.375411
 H         1.470662        -2.404455        -0.338468
 H         0.940193        -1.390547        -1.795406
 H         3.879738        -1.606398        -1.507959
 H         4.392034        -0.719671         0.815984
 H         3.843993         1.951186        -0.448700
 H         5.000976         0.691885        -1.145800
 H         2.973226         0.624399        -2.912153
