19
Iteration:  1620
 C        -0.117520         0.151609         0.253241
 C         1.317659        -0.124675        -0.130008
 C         1.674275        -1.464900        -0.792424
 C         3.095952        -1.036035        -1.052132
 C         3.601439        -0.219127         0.142343
 C         4.016456         1.013752        -0.728000
 C         2.904710         0.505655        -1.705616
 O         1.534761         0.711791        -1.335599
 O         2.428388         0.103872         0.897502
 H        -0.181275        -0.651586         1.052064
 H        -0.142255         1.150899         0.721120
 H        -0.693685         0.014473        -0.692052
 H         1.619309        -2.245259        -0.077594
 H         0.916451        -1.607520        -1.560369
 H         3.714182        -1.841403        -1.489569
 H         4.274708        -0.739285         0.800327
 H         4.038097         1.944240        -0.160251
 H         4.918652         0.665555        -1.155468
 H         2.818899         0.607896        -2.739964
