19
Iteration:  1098charge 0 multiplicity 1
 C        -0.059094         0.136432         0.333749
 C         1.287909        -0.084993        -0.184515
 C         1.636608        -1.466964        -0.810234
 C         3.101648        -1.030539        -1.087111
 C         3.673627        -0.153155         0.174834
 C         4.070393         1.031948        -0.727588
 C         2.843896         0.432950        -1.685279
 O         1.530920         0.743363        -1.284964
 O         2.410528         0.045237         0.815424
 H        -0.193025        -0.846894         0.814340
 H        -0.214019         1.003107         0.999217
 H        -0.977692         0.122592        -0.342771
 H         1.568149        -2.287588        -0.072000
 H         0.950525        -1.550674        -1.651432
 H         3.689687        -1.774082        -1.666416
 H         4.340758        -0.511776         0.958358
 H         3.990940         1.943973        -0.332969
 H         4.965009         0.696708        -1.059302
 H         2.768241         0.462727        -2.764910
