19
Iteration:  4977
 C        -0.137940         0.080987         0.234258
 C         1.289759        -0.133978        -0.212082
 C         1.591037        -1.475812        -0.697133
 C         3.121179        -1.071505        -1.018024
 C         3.656578        -0.125229         0.206096
 C         3.955065         1.036094        -0.728593
 C         3.028709         0.284599        -1.750477
 O         1.691026         0.698531        -1.325374
 O         2.288532         0.229108         0.865245
 H        -0.341049        -0.404339         1.247670
 H        -0.275123         1.211385         0.274021
 H        -0.810969        -0.068285        -0.689845
 H         1.579330        -2.249563        -0.009437
 H         1.058576        -1.665125        -1.549556
 H         3.802195        -1.762743        -1.601746
 H         4.261587        -0.479742         1.114273
 H         3.508769         1.995384        -0.369965
 H         4.949768         1.241499        -1.122268
 H         3.153504         0.456214        -2.800946
