19
Iteration:  3797charge 0 multiplicity 1
 C        -0.115306         0.072828         0.323110
 C         1.319291        -0.077285        -0.147912
 C         1.666633        -1.527469        -0.715466
 C         3.074372        -1.034585        -1.052703
 C         3.589725        -0.176714         0.223938
 C         3.941580         1.051913        -0.694159
 C         3.012861         0.364031        -1.742882
 O         1.656124         0.777792        -1.424016
 O         2.281504         0.137741         0.818728
 H        -0.440693        -0.776558         0.970047
 H        -0.204279         1.038348         0.790283
 H        -0.698332         0.267597        -0.542783
 H         1.676251        -2.381086         0.080217
 H         1.352395        -1.860466        -1.726228
 H         3.707291        -1.851249        -1.376874
 H         4.422564        -0.469713         0.933977
 H         3.688349         2.068643        -0.423993
 H         4.959525         0.942113        -1.025210
 H         3.270577         0.564929        -2.788255
