19
Iteration:  1934charge 0 multiplicity 1
 C        -0.085212         0.224932         0.363296
 C         1.370012        -0.125810        -0.268336
 C         1.668168        -1.583525        -0.808923
 C         3.086811        -1.098346        -1.023727
 C         3.600002        -0.099518         0.217673
 C         3.961286         0.983323        -0.751598
 C         2.931040         0.436616        -1.703786
 O         1.617210         0.788362        -1.306052
 O         2.309069         0.034476         0.815499
 H        -0.151054        -0.378541         1.365107
 H        -0.169129         1.387568         0.503723
 H        -0.832385        -0.175259        -0.290013
 H         1.568303        -2.227384         0.099563
 H         1.274882        -1.997652        -1.739799
 H         3.861614        -1.650900        -1.508872
 H         4.322234        -0.361616         1.000210
 H         3.608849         1.990333        -0.476974
 H         4.959649         0.907727        -1.071782
 H         2.959023         0.745702        -2.793480
