19
Iteration:   132charge 0 multiplicity 1
 C        -0.105070         0.156655         0.452158
 C         1.294168        -0.130169        -0.171361
 C         1.695505        -1.450396        -0.850666
 C         3.156974        -1.029486        -1.068944
 C         3.671151        -0.240012         0.093407
 C         4.033371         1.011010        -0.750824
 C         2.905395         0.404676        -1.666865
 O         1.495863         0.763871        -1.220948
 O         2.362957         0.084150         0.770148
 H        -0.535300        -0.737871         0.854903
 H        -0.220256         1.019482         1.037961
 H        -0.721212         0.350565        -0.359981
 H         1.390720        -2.311975        -0.322249
 H         1.343384        -1.423629        -1.859158
 H         3.782778        -1.707861        -1.682097
 H         4.298808        -0.765716         0.825501
 H         3.770806         2.072721        -0.346175
 H         5.096954         1.002057        -1.069123
 H         2.843491         0.525920        -2.769575
