19
Iteration:  4299
 C        -0.105824         0.182699         0.239058
 C         1.308023        -0.157945        -0.284900
 C         1.662101        -1.542990        -0.664130
 C         3.076457        -1.090371        -1.023939
 C         3.615375        -0.133886         0.214343
 C         3.953996         1.021192        -0.713876
 C         2.971105         0.400477        -1.699210
 O         1.629407         0.804412        -1.379269
 O         2.349481         0.091425         0.852378
 H        -0.255465        -0.341506         1.185576
 H        -0.463942         1.200389         0.377492
 H        -0.892604        -0.316112        -0.392809
 H         1.420774        -2.165640         0.033634
 H         1.101744        -1.896812        -1.538396
 H         3.931103        -1.681273        -1.343113
 H         4.360038        -0.523258         0.904581
 H         3.797269         2.019577        -0.244331
 H         5.006460         1.041179        -1.070175
 H         3.167750         0.441734        -2.757343
