19
Iteration:  4290charge 0 multiplicity 1
 C        -0.066493         0.135180         0.299254
 C         1.281039        -0.084915        -0.258631
 C         1.666458        -1.539930        -0.660030
 C         3.088724        -0.983015        -1.009279
 C         3.573717        -0.185774         0.190689
 C         3.969307         1.029690        -0.714769
 C         3.011797         0.384005        -1.711278
 O         1.654608         0.749936        -1.397450
 O         2.255768         0.080085         0.839104
 H        -0.155439        -0.434525         1.275809
 H        -0.202300         1.245210         0.397857
 H        -0.802678        -0.190264        -0.525922
 H         1.560145        -2.180106         0.191475
 H         1.328304        -1.798285        -1.614408
 H         3.794263        -1.824069        -1.284564
 H         4.289532        -0.642037         0.898159
 H         3.767880         2.112862        -0.603261
 H         5.011714         0.839568        -1.149275
 H         3.153065         0.788252        -2.749045
