19
Iteration:  1563
 C        -0.018243         0.106707         0.420479
 C         1.292281        -0.087588        -0.161706
 C         1.640729        -1.429615        -0.848168
 C         3.122612        -1.006251        -1.054052
 C         3.584153        -0.198288         0.247248
 C         3.966925         0.967121        -0.776387
 C         3.007348         0.428141        -1.730895
 O         1.585726         0.774062        -1.349686
 O         2.277803         0.050195         0.809214
 H        -0.141076        -0.593854         1.336673
 H        -0.155090         1.165076         0.704093
 H        -0.828212        -0.124251        -0.290247
 H         1.610018        -2.254279        -0.130794
 H         0.957842        -1.542782        -1.673647
 H         3.748201        -1.767656        -1.588415
 H         4.302288        -0.533070         0.987617
 H         3.960366         2.034608        -0.458620
 H         5.045701         0.906093        -1.060282
 H         3.138995         0.420476        -2.803330
