19
Iteration:  1255
 C        -0.021524         0.168694         0.418207
 C         1.353934        -0.129592        -0.086037
 C         1.644113        -1.526238        -0.860198
 C         3.097315        -1.081121        -1.171441
 C         3.557257        -0.168098         0.136853
 C         3.947385         0.988662        -0.691337
 C         2.975654         0.452276        -1.676039
 O         1.552622         0.754212        -1.346005
 O         2.344297         0.123173         0.847114
 H        -0.197303        -0.747142         1.171726
 H         0.053340         1.294645         0.763597
 H        -0.661804         0.111550        -0.651997
 H         1.656405        -2.420777        -0.234752
 H         0.939163        -1.599817        -1.723823
 H         3.924151        -1.648290        -1.513559
 H         4.166505        -0.550285         0.989282
 H         3.899771         1.961045        -0.262206
 H         4.924275         0.702942        -1.046772
 H         2.901055         0.664559        -2.812589
