19
Iteration:  1199charge 0 multiplicity 1
 C        -0.055933         0.086413         0.348898
 C         1.325395        -0.118278        -0.130057
 C         1.693733        -1.481987        -0.750929
 C         3.041361        -0.969236        -1.124436
 C         3.565806        -0.206491         0.190346
 C         3.995894         0.944272        -0.806596
 C         2.927814         0.497028        -1.779540
 O         1.645239         0.818913        -1.251966
 O         2.299889         0.047237         0.862718
 H        -0.152301        -0.370094         1.353440
 H        -0.079728         1.182544         0.499150
 H        -0.834979        -0.389856        -0.481519
 H         1.652595        -2.376175        -0.092602
 H         1.066932        -1.672916        -1.655248
 H         3.786989        -1.641300        -1.576416
 H         4.219334        -0.692875         0.946639
 H         4.087863         1.912619        -0.421972
 H         4.937890         0.777439        -1.262572
 H         2.871471         0.655680        -2.912768
