19
Iteration:  3994charge 0 multiplicity 1
 C        -0.128644         0.179945         0.283424
 C         1.260731        -0.125508        -0.274877
 C         1.751190        -1.517931        -0.699341
 C         3.241029        -1.007419        -1.025791
 C         3.498896        -0.199928         0.192201
 C         3.910852         0.942328        -0.769228
 C         2.961522         0.443860        -1.781272
 O         1.613086         0.768882        -1.313087
 O         2.293248         0.119336         0.921217
 H        -0.362169        -0.696529         0.916061
 H         0.000717         1.206101         0.768751
 H        -0.723065         0.184684        -0.609095
 H         1.717603        -2.317577         0.065330
 H         1.373124        -2.074388        -1.520910
 H         4.094335        -1.661053        -1.406849
 H         4.219252        -0.628105         0.912938
 H         3.962427         1.974576        -0.431178
 H         4.857561         0.687662        -1.147000
 H         3.014100         0.792834        -2.841367
