19
Iteration:  3171charge 0 multiplicity 1
 C        -0.093049         0.099843         0.291443
 C         1.308351        -0.146056        -0.209924
 C         1.745245        -1.473868        -0.772061
 C         3.110330        -1.035177        -1.035211
 C         3.567918        -0.148448         0.305532
 C         4.013513         0.962389        -0.792315
 C         2.926894         0.380298        -1.681258
 O         1.606245         0.742476        -1.319174
 O         2.273248         0.201039         0.807086
 H        -0.358837        -0.488781         1.142941
 H        -0.111989         1.099593         0.540678
 H        -0.692125        -0.096772        -0.596241
 H         1.557656        -2.262215        -0.057915
 H         1.260616        -1.687157        -1.734646
 H         3.702170        -1.707905        -1.565362
 H         4.354800        -0.344902         1.032475
 H         3.911824         1.996601        -0.445031
 H         5.046583         0.741152        -1.145119
 H         2.912751         0.250837        -2.714720
