19
Iteration:  3732
 C        -0.136871         0.147899         0.296615
 C         1.320742        -0.095981        -0.210375
 C         1.728431        -1.432417        -0.784414
 C         3.188702        -1.004973        -1.009092
 C         3.588615        -0.181632         0.191281
 C         3.998385         1.010080        -0.678243
 C         2.972713         0.363425        -1.773231
 O         1.577820         0.657745        -1.331293
 O         2.251670         0.133903         0.866714
 H        -0.224564        -0.240328         1.328354
 H        -0.287461         1.216419         0.227334
 H        -0.886369        -0.246699        -0.358551
 H         1.781522        -2.370939        -0.115288
 H         1.179507        -1.785444        -1.699608
 H         3.801130        -1.770390        -1.510348
 H         4.139957        -0.652363         1.048304
 H         3.917071         2.062145        -0.388364
 H         5.005217         0.917669        -1.151651
 H         2.979807         0.786003        -2.799446
