19
Iteration:  4139charge 0 multiplicity 1
 C        -0.089871         0.119090         0.342383
 C         1.330474        -0.112305        -0.254208
 C         1.700663        -1.523542        -0.706878
 C         3.094516        -1.081155        -1.090756
 C         3.545674        -0.110353         0.251736
 C         3.950862         0.988758        -0.670772
 C         2.978094         0.335923        -1.710744
 O         1.653207         0.822537        -1.373543
 O         2.285981         0.140011         0.764251
 H        -0.176719        -0.210190         1.344578
 H        -0.157596         1.157521         0.391281
 H        -0.761125        -0.383095        -0.307964
 H         1.827848        -2.378530        -0.051403
 H         1.081249        -2.033312        -1.395148
 H         3.854720        -1.718573        -1.484263
 H         4.110568        -0.591859         1.057551
 H         3.662032         1.969362        -0.400652
 H         4.931287         1.004861        -1.025022
 H         3.083348         0.651009        -2.779025
