19
Iteration:  2217charge 0 multiplicity 1
 C        -0.073637         0.145537         0.362713
 C         1.303476        -0.062271        -0.170891
 C         1.693793        -1.475161        -0.806335
 C         3.109651        -1.001203        -0.990552
 C         3.599256        -0.183289         0.210384
 C         3.955879         0.954386        -0.758956
 C         2.993050         0.392279        -1.780473
 O         1.598131         0.746029        -1.408580
 O         2.313165         0.086154         0.897994
 H        -0.509235        -0.697234         0.918188
 H        -0.330655         1.079159         0.907679
 H        -0.850061         0.232824        -0.470994
 H         1.463663        -2.243191        -0.029271
 H         1.187147        -1.735175        -1.770615
 H         3.971890        -1.650046        -1.110422
 H         4.269571        -0.577742         0.990955
 H         3.779035         2.044449        -0.382444
 H         5.002697         0.770080        -1.210361
 H         3.067574         0.479981        -2.929058
