19
Iteration:  2964
 C        -0.044920         0.206662         0.259695
 C         1.273199        -0.160072        -0.184268
 C         1.752281        -1.472132        -0.712274
 C         3.147509        -1.007050        -1.031174
 C         3.589941        -0.192842         0.178354
 C         3.947141         1.028587        -0.749917
 C         2.953614         0.372531        -1.737011
 O         1.621473         0.734940        -1.321819
 O         2.242825         0.076232         0.841517
 H        -0.376991        -0.444715         1.080134
 H        -0.038303         1.249483         0.629746
 H        -0.699303         0.052052        -0.607420
 H         1.660022        -2.288300        -0.024388
 H         1.234847        -1.707885        -1.611930
 H         3.877092        -1.888775        -1.169225
 H         4.248546        -0.505570         1.036910
 H         3.691966         1.957413        -0.260662
 H         4.911638         1.069301        -1.257159
 H         2.843701         0.479232        -2.876825
