19
Iteration:   453charge 0 multiplicity 1
 C        -0.033818         0.075292         0.379449
 C         1.359018        -0.167911        -0.142013
 C         1.687252        -1.519795        -0.844433
 C         3.087840        -1.022575        -1.130095
 C         3.544777        -0.221412         0.110248
 C         4.022003         0.948496        -0.756749
 C         2.874613         0.509002        -1.732304
 O         1.578522         0.828540        -1.187329
 O         2.341134         0.146330         0.834089
 H        -0.273477        -0.480427         1.248103
 H        -0.157838         1.135638         0.590278
 H        -0.854620        -0.089382        -0.354276
 H         1.751365        -2.312143        -0.084829
 H         1.077113        -1.686344        -1.751381
 H         3.745635        -1.669098        -1.678230
 H         4.251671        -0.711315         0.831900
 H         3.943833         1.943886        -0.374668
 H         5.034276         0.545390        -1.074891
 H         2.875051         0.777953        -2.769790
