19
Iteration:  3505charge 0 multiplicity 1
 C        -0.120100         0.225883         0.262015
 C         1.286242        -0.131009        -0.238337
 C         1.765035        -1.498256        -0.756298
 C         3.216574        -1.049552        -1.120714
 C         3.532265        -0.178405         0.299260
 C         3.968826         0.986991        -0.695026
 C         2.986628         0.346749        -1.748570
 O         1.529712         0.723746        -1.323178
 O         2.289079         0.138600         0.861339
 H        -0.169915        -0.161781         1.312570
 H        -0.172444         1.323972         0.445181
 H        -0.925842        -0.322022        -0.328698
 H         1.906562        -2.308744        -0.064576
 H         1.258336        -1.860445        -1.633583
 H         3.973917        -1.586754        -1.702715
 H         4.213617        -0.391361         1.148170
 H         3.834747         2.010521        -0.311951
 H         5.011612         0.720268        -1.069666
 H         2.945932         0.609510        -2.897483
