19
Iteration:  2485
 C        -0.099275         0.109116         0.298365
 C         1.309189        -0.116473        -0.231809
 C         1.718025        -1.524118        -0.718444
 C         3.121153        -1.071890        -1.079305
 C         3.595263        -0.179730         0.246674
 C         4.030031         0.926671        -0.738732
 C         2.940922         0.381052        -1.699050
 O         1.570300         0.816507        -1.365592
 O         2.292181         0.180011         0.830559
 H        -0.219290        -0.116466         1.353648
 H        -0.321444         1.176105         0.483258
 H        -0.922345        -0.307248        -0.299833
 H         1.759079        -2.085000         0.161000
 H         1.123244        -1.729240        -1.581240
 H         3.743918        -1.618854        -1.746144
 H         4.291941        -0.531748         1.016534
 H         3.719790         1.941066        -0.411381
 H         5.050727         0.795003        -1.097841
 H         3.197648         0.498118        -2.717007
