19
Iteration:  4915
 C        -0.132612         0.201019         0.303752
 C         1.305971        -0.098872        -0.190642
 C         1.732326        -1.515777        -0.717638
 C         3.179019        -1.035488        -1.003065
 C         3.565234        -0.182807         0.170056
 C         3.928041         0.995623        -0.674791
 C         3.035604         0.332810        -1.725511
 O         1.603725         0.701212        -1.353667
 O         2.288175         0.213810         0.780384
 H        -0.456547        -0.051768         1.308341
 H        -0.433222         1.217796         0.253202
 H        -0.709122        -0.364649        -0.454557
 H         1.643036        -2.409329         0.039007
 H         1.062388        -1.912370        -1.679984
 H         3.825860        -1.784334        -1.395269
 H         4.140799        -0.852473         0.832210
 H         3.718573         1.988722        -0.260464
 H         4.968396         0.955800        -1.075909
 H         3.216668         0.479819        -2.804910
