19
Iteration:  3132charge 0 multiplicity 1
 C        -0.035821         0.101847         0.306207
 C         1.289050        -0.123100        -0.164677
 C         1.695528        -1.438313        -0.658351
 C         3.114596        -1.012928        -0.970535
 C         3.571510        -0.218289         0.159599
 C         4.003892         0.989691        -0.710431
 C         2.900273         0.388119        -1.735870
 O         1.635916         0.817996        -1.415691
 O         2.249594         0.083559         0.763292
 H        -0.181881        -0.173577         1.400208
 H        -0.274564         1.222155         0.175225
 H        -0.852250        -0.408012        -0.195808
 H         1.772817        -2.235914         0.078549
 H         1.506895        -1.908652        -1.614564
 H         3.914638        -1.662756        -1.361756
 H         4.116332        -0.641839         1.020941
 H         3.743835         2.037696        -0.505858
 H         5.052816         0.878845        -0.929543
 H         3.168038         0.486014        -2.809916
