19
Iteration:  4440
 C        -0.076551         0.170924         0.189135
 C         1.318467        -0.093099        -0.196730
 C         1.797797        -1.566392        -0.669518
 C         3.132626        -1.028177        -1.110315
 C         3.537751        -0.122327         0.279847
 C         3.962307         0.947374        -0.765483
 C         2.935354         0.363686        -1.733002
 O         1.612077         0.762797        -1.282626
 O         2.226377         0.139504         0.812963
 H        -0.447698        -0.559012         0.874087
 H         0.048923         1.011297         0.810901
 H        -0.750653         0.498556        -0.591496
 H         1.753742        -2.313536         0.258280
 H         1.021355        -2.041853        -1.451247
 H         4.050864        -1.625749        -1.414739
 H         4.191027        -0.485353         1.103295
 H         4.025728         2.025128        -0.724841
 H         5.008272         0.780491        -0.943470
 H         2.993143         0.471355        -2.799289
