19
Iteration:  2392
 C        -0.156534         0.113716         0.303789
 C         1.264716        -0.081687        -0.228668
 C         1.771439        -1.549599        -0.659703
 C         3.089343        -0.995266        -1.094023
 C         3.539005        -0.203722         0.191427
 C         4.009395         0.948403        -0.762048
 C         2.963695         0.408451        -1.783412
 O         1.645693         0.832602        -1.397125
 O         2.295101         0.122887         0.922142
 H        -0.336411        -0.607056         1.035201
 H        -0.200477         0.956054         0.930049
 H        -0.774158         0.188455        -0.499367
 H         1.876810        -1.986512         0.369872
 H         1.145698        -2.195998        -1.300880
 H         3.867005        -1.660352        -1.533873
 H         4.303194        -0.604387         0.890999
 H         3.678041         1.924241        -0.459054
 H         5.064641         0.748587        -1.020296
 H         3.155539         0.531661        -2.890109
