19
Iteration:  3079charge 0 multiplicity 1
 C        -0.055952         0.207098         0.288581
 C         1.287981        -0.161809        -0.206009
 C         1.692344        -1.505642        -0.734721
 C         3.138084        -1.037435        -1.057417
 C         3.597798        -0.177869         0.276551
 C         4.003103         1.011611        -0.788944
 C         2.937050         0.384326        -1.706177
 O         1.567656         0.747151        -1.332254
 O         2.268595         0.091633         0.835778
 H        -0.405026        -0.130631         1.302367
 H        -0.090545         1.346680         0.359395
 H        -0.661799        -0.141058        -0.540997
 H         1.786560        -2.423115        -0.082141
 H         1.190155        -1.818114        -1.737549
 H         4.014415        -1.478657        -1.558338
 H         4.175038        -0.272707         1.200507
 H         3.858322         2.052374        -0.425798
 H         5.031703         0.866923        -1.183465
 H         3.118325         0.192394        -2.715496
