19
Iteration:  3907
 C        -0.089082         0.160804         0.263557
 C         1.235804        -0.158655        -0.248863
 C         1.709941        -1.502734        -0.767523
 C         3.179514        -1.040049        -1.001379
 C         3.506353        -0.189533         0.198316
 C         4.015051         1.017547        -0.729626
 C         2.953302         0.440329        -1.728565
 O         1.600463         0.734778        -1.319551
 O         2.307939         0.111482         0.827360
 H        -0.130786        -0.147913         1.321340
 H        -0.069274         1.237915         0.468730
 H        -0.949245        -0.199649        -0.233822
 H         1.908278        -2.303040         0.046467
 H         1.256010        -1.920511        -1.658543
 H         3.887268        -1.829773        -1.337191
 H         4.154969        -0.400372         1.058976
 H         3.879997         1.979873        -0.268365
 H         5.007238         0.837412        -1.027586
 H         2.994232         0.732959        -2.795384
