19
Iteration:  4301charge 0 multiplicity 1
 C        -0.113449         0.185018         0.222230
 C         1.305583        -0.145859        -0.275839
 C         1.665788        -1.535238        -0.688086
 C         3.093970        -1.104321        -1.016701
 C         3.609517        -0.131559         0.219620
 C         3.955372         1.018367        -0.711578
 C         2.957161         0.402120        -1.703557
 O         1.622040         0.805131        -1.368821
 O         2.363905         0.096211         0.851457
 H        -0.272038        -0.326765         1.228355
 H        -0.443874         1.233580         0.386506
 H        -0.904743        -0.362767        -0.403621
 H         1.444603        -2.233129         0.058516
 H         1.054262        -1.901295        -1.466195
 H         3.953674        -1.709673        -1.433797
 H         4.363461        -0.498861         0.943313
 H         3.756916         1.973658        -0.182920
 H         5.032884         1.047191        -1.066087
 H         3.162842         0.357547        -2.806883
