19
Iteration:  2034
 C        -0.027116         0.159816         0.393220
 C         1.311313        -0.127643        -0.246016
 C         1.680364        -1.441761        -0.758231
 C         3.134193        -0.975401        -1.073813
 C         3.517337        -0.157066         0.245718
 C         3.975994         0.997075        -0.786868
 C         2.999238         0.379677        -1.757380
 O         1.644116         0.731262        -1.339213
 O         2.221118         0.022918         0.867226
 H        -0.208909        -0.654666         1.116273
 H         0.204203         1.180661         0.806309
 H        -0.732362         0.263244        -0.527284
 H         1.720614        -2.243710         0.015724
 H         1.062477        -1.626751        -1.694640
 H         3.820001        -1.717580        -1.465860
 H         4.129339        -0.584785         1.048290
 H         3.685650         2.004235        -0.548911
 H         5.046087         0.946105        -1.038589
 H         2.938276         0.606911        -2.823386
