19
Iteration:  3048
 C        -0.113435         0.106755         0.336134
 C         1.306282        -0.109215        -0.180666
 C         1.717327        -1.470032        -0.658642
 C         3.148154        -1.016901        -1.065035
 C         3.494522        -0.234726         0.181720
 C         3.965444         0.964890        -0.758337
 C         2.994667         0.381870        -1.789950
 O         1.657272         0.793238        -1.362113
 O         2.249206         0.165516         0.844274
 H        -0.323702        -0.763044         0.942457
 H         0.017053         1.130903         0.777603
 H        -0.723668         0.166639        -0.546080
 H         1.825410        -2.283305         0.137536
 H         1.161779        -1.856595        -1.615392
 H         4.038809        -1.684927        -1.397079
 H         4.069005        -0.513331         1.092627
 H         3.751389         2.000862        -0.400373
 H         5.055469         0.859524        -1.062535
 H         3.072899         0.396525        -2.892050
