19
Iteration:   115
 C         0.002781         0.155589         0.408705
 C         1.380063        -0.116543        -0.151046
 C         1.671396        -1.472017        -0.839267
 C         3.081588        -0.988477        -1.175192
 C         3.555516        -0.202733         0.191955
 C         3.862237         0.971965        -0.754691
 C         2.897618         0.431363        -1.788687
 O         1.635240         0.804569        -1.339949
 O         2.341047         0.000890         0.948570
 H        -0.308024        -0.759470         1.050605
 H         0.105682         1.039294         1.119252
 H        -0.850605         0.331628        -0.338440
 H         1.872234        -2.323280        -0.065788
 H         0.956156        -1.604938        -1.698721
 H         3.875146        -1.643078        -1.563556
 H         4.310504        -0.622558         0.900155
 H         3.717166         1.936481        -0.303796
 H         4.869809         0.984201        -1.157092
 H         3.024215         0.683346        -2.846440
