19
Iteration:  2517
 C        -0.107004         0.138436         0.256840
 C         1.332908        -0.149850        -0.216737
 C         1.659804        -1.507359        -0.821780
 C         3.101732        -1.064936        -0.982049
 C         3.572360        -0.111140         0.227538
 C         4.029611         0.974984        -0.827332
 C         2.939484         0.367107        -1.747536
 O         1.607177         0.758070        -1.288269
 O         2.316947         0.167815         0.951009
 H        -0.093393        -0.315944         1.237606
 H        -0.180095         1.221228         0.268085
 H        -0.934431        -0.276861        -0.335543
 H         1.393729        -2.360874        -0.152979
 H         1.121327        -1.813959        -1.708075
 H         3.775501        -1.737034        -1.438065
 H         4.393348        -0.482977         0.850505
 H         3.847115         2.039504        -0.507201
 H         5.083108         0.896386        -1.149509
 H         3.068267         0.512382        -2.793935
