19
Iteration:  1181charge 0 multiplicity 1
 C        -0.136318         0.181180         0.354211
 C         1.397204        -0.134510        -0.181813
 C         1.750770        -1.494582        -0.900336
 C         3.146825        -1.033035        -1.165896
 C         3.585498        -0.213169         0.104307
 C         3.969615         0.923091        -0.716395
 C         2.862373         0.352318        -1.699836
 O         1.525165         0.779873        -1.157770
 O         2.379269         0.177939         0.876715
 H        -0.414991        -0.295208         1.348582
 H        -0.255473         1.283210         0.439041
 H        -0.632141        -0.230862        -0.392188
 H         1.601902        -2.262093        -0.155790
 H         1.094462        -1.635197        -1.752750
 H         3.794693        -1.667321        -1.724809
 H         4.134399        -0.767112         0.876242
 H         3.889805         2.023761        -0.303610
 H         5.062700         0.895309        -1.079174
 H         2.950740         0.616431        -2.748339
