19
Iteration:  1306charge 0 multiplicity 1
 C        -0.036964         0.144409         0.352625
 C         1.315120        -0.135709        -0.161413
 C         1.680062        -1.525754        -0.757475
 C         3.083456        -1.056287        -1.155528
 C         3.555005        -0.175458         0.197262
 C         3.954203         0.980932        -0.735444
 C         2.937111         0.452379        -1.779358
 O         1.627877         0.800368        -1.215099
 O         2.346484         0.095223         0.815815
 H        -0.318628        -0.687570         0.834278
 H        -0.170315         1.056763         0.771249
 H        -0.570770         0.211829        -0.599762
 H         1.725497        -2.298039         0.040636
 H         1.004777        -1.778787        -1.614215
 H         3.731018        -1.783694        -1.686637
 H         4.284887        -0.510837         0.940970
 H         3.602927         2.010395        -0.649942
 H         5.068524         0.723985        -0.811867
 H         2.806512         0.774566        -2.823982
