19
Iteration:   972charge 0 multiplicity 1
 C        -0.050760         0.152312         0.361924
 C         1.357891        -0.119284        -0.131114
 C         1.703503        -1.493095        -0.794443
 C         3.067047        -0.983808        -1.144475
 C         3.605926        -0.241845         0.203058
 C         3.981046         0.955337        -0.751050
 C         2.891915         0.426375        -1.746341
 O         1.522496         0.867143        -1.306196
 O         2.394606         0.032947         0.863542
 H        -0.229386        -0.353765         1.247638
 H        -0.421407         1.068437         0.666042
 H        -0.709011        -0.294270        -0.415097
 H         1.739278        -2.257962        -0.036995
 H         1.032930        -1.936012        -1.567690
 H         3.841003        -1.467148        -1.774031
 H         4.267540        -0.669308         0.984233
 H         3.761797         2.046341        -0.455487
 H         4.978145         0.777926        -1.136538
 H         2.995305         0.596156        -2.862516
