19
Iteration:  2415charge 0 multiplicity 1
 C        -0.054673         0.199303         0.275263
 C         1.282572        -0.104746        -0.220431
 C         1.690345        -1.498468        -0.727308
 C         3.197550        -1.040226        -0.999738
 C         3.549123        -0.139013         0.208877
 C         3.968766         1.021270        -0.804798
 C         2.910697         0.339927        -1.688756
 O         1.599203         0.732735        -1.264912
 O         2.293150         0.074478         0.798293
 H        -0.320469        -0.492100         0.991907
 H        -0.085636         1.035499         0.853762
 H        -0.578779         0.277263        -0.636307
 H         1.454122        -2.382567        -0.090695
 H         1.305749        -1.579222        -1.728252
 H         3.971016        -1.770557        -1.325686
 H         4.335511        -0.285399         0.950121
 H         3.721443         2.031897        -0.534291
 H         4.969772         0.727904        -1.209702
 H         3.021521         0.444175        -2.783655
