19
Iteration:  2202charge 0 multiplicity 1
 C        -0.079109         0.207107         0.266499
 C         1.360052        -0.163354        -0.172466
 C         1.667449        -1.455647        -0.732719
 C         3.142726        -1.019449        -1.095729
 C         3.525619        -0.177129         0.208740
 C         4.018449         1.021124        -0.717599
 C         2.930567         0.377844        -1.698219
 O         1.579650         0.630172        -1.329398
 O         2.303881         0.155706         0.856295
 H        -0.354990        -0.599607         0.941091
 H         0.027237         1.119694         0.845640
 H        -0.634569         0.367161        -0.589049
 H         1.770215        -2.385058        -0.118973
 H         1.058580        -1.434488        -1.682064
 H         3.677365        -1.728162        -1.733333
 H         4.259305        -0.629810         0.891036
 H         3.813232         2.053831        -0.347241
 H         5.034945         0.821468        -1.060556
 H         3.028290         0.612197        -2.739904
