19
Iteration:   534charge 0 multiplicity 1
 C        -0.142865         0.184180         0.420701
 C         1.334850        -0.115516        -0.183532
 C         1.751493        -1.541311        -0.723416
 C         3.125052        -0.965513        -1.223818
 C         3.562915        -0.240576         0.081412
 C         4.008139         0.918687        -0.736398
 C         2.903678         0.492026        -1.743640
 O         1.590147         0.842224        -1.258322
 O         2.318612         0.024829         0.857962
 H        -0.563167        -0.571136         1.125511
 H        -0.195125         1.099896         1.003132
 H        -0.868685         0.151457        -0.340809
 H         1.888826        -2.277685         0.073767
 H         1.068654        -1.977001        -1.444001
 H         3.880888        -1.652378        -1.670215
 H         4.256645        -0.778190         0.648870
 H         4.054721         1.951076        -0.287198
 H         4.999665         0.857940        -1.141626
 H         3.024738         0.802032        -2.723117
