19
Iteration:  3597charge 0 multiplicity 1
 C        -0.042412         0.132456         0.291621
 C         1.287895        -0.076509        -0.236956
 C         1.708860        -1.473113        -0.783566
 C         3.161299        -1.020674        -1.028002
 C         3.572586        -0.174626         0.245572
 C         3.951506         0.984761        -0.690112
 C         2.921683         0.379409        -1.684718
 O         1.590070         0.665350        -1.343414
 O         2.300793         0.182112         0.793252
 H        -0.323253        -0.720981         0.946997
 H        -0.013960         1.080853         0.892924
 H        -0.655059         0.159273        -0.625283
 H         1.573825        -2.220703         0.037841
 H         1.192054        -1.855974        -1.729665
 H         3.833518        -1.752416        -1.541655
 H         4.160496        -0.191360         1.156066
 H         3.780052         2.006453        -0.390422
 H         4.916276         0.795970        -1.075362
 H         3.150969         0.380779        -2.700973
