19
Iteration:  4243
 C        -0.074851         0.164595         0.277728
 C         1.322698        -0.162563        -0.213157
 C         1.720477        -1.515673        -0.756725
 C         3.131625        -1.070395        -0.918484
 C         3.553299        -0.196811         0.220085
 C         4.038795         1.037583        -0.785174
 C         2.935099         0.429646        -1.685330
 O         1.586442         0.706440        -1.330459
 O         2.255467         0.172582         0.769616
 H        -0.338116        -0.742023         0.820751
 H        -0.181068         1.061296         0.924514
 H        -0.755522         0.210069        -0.602091
 H         1.625221        -2.131565         0.007546
 H         1.261412        -1.532757        -1.782699
 H         3.941469        -1.676766        -1.347830
 H         4.139859        -0.533381         1.065725
 H         3.876186         2.019915        -0.249666
 H         5.042614         0.894611        -1.246435
 H         2.996718         0.389929        -2.748917
