19
Iteration:  4258charge 0 multiplicity 1
 C        -0.112183         0.138410         0.335543
 C         1.265513        -0.085590        -0.242155
 C         1.769532        -1.617951        -0.829885
 C         3.166494        -1.050305        -1.049653
 C         3.564136        -0.122156         0.287705
 C         3.961491         0.926322        -0.684017
 C         2.945071         0.343496        -1.712286
 O         1.594280         0.764492        -1.351172
 O         2.283619         0.259421         0.826796
 H        -0.439829        -0.574211         1.145224
 H         0.048352         1.133450         0.800146
 H        -0.855550         0.181933        -0.542608
 H         1.586906        -2.579928        -0.124343
 H         1.316502        -1.841356        -1.801041
 H         3.987153        -1.713781        -1.438500
 H         4.287381        -0.462766         1.060313
 H         3.830756         2.000359        -0.554258
 H         4.973442         0.656413        -1.108757
 H         3.101794         0.696235        -2.772683
