19
Iteration:  1809
 C        -0.057439         0.199390         0.374359
 C         1.344718        -0.046045        -0.292499
 C         1.778589        -1.520036        -0.693839
 C         3.132198        -1.007587        -1.102546
 C         3.547715        -0.242729         0.206028
 C         3.962408         0.954199        -0.688046
 C         2.901205         0.365988        -1.658350
 O         1.518970         0.846948        -1.403645
 O         2.315248         0.056633         0.806239
 H        -0.180118        -0.621447         1.072957
 H         0.010278         1.113896         0.976233
 H        -1.051984         0.212240        -0.423903
 H         1.952270        -2.157801         0.194075
 H         1.279560        -2.091995        -1.511618
 H         3.896488        -1.543934        -1.713825
 H         4.241942        -0.661507         0.980404
 H         3.655378         1.929534        -0.384035
 H         4.992243         0.805011        -1.092857
 H         3.146290         0.385343        -2.749619
