19
Iteration:  3931
 C        -0.045314         0.146792         0.324776
 C         1.266679        -0.125636        -0.224968
 C         1.752967        -1.502673        -0.717411
 C         3.190846        -0.957625        -1.097677
 C         3.528802        -0.185711         0.238579
 C         4.002307         0.954678        -0.697383
 C         2.968827         0.356197        -1.745921
 O         1.592149         0.772459        -1.369713
 O         2.201970         0.135544         0.840248
 H        -0.204622        -0.255532         1.273134
 H        -0.344750         1.156385         0.538628
 H        -0.711765        -0.389002        -0.321560
 H         1.934829        -2.348121         0.078680
 H         1.164776        -1.732734        -1.653556
 H         3.783927        -1.682171        -1.761054
 H         4.184549        -0.539456         1.080394
 H         3.941443         2.007458        -0.334869
 H         4.998923         0.673432        -1.025746
 H         3.167599         0.613328        -2.828803
