19
Iteration:  3323
 C        -0.101589         0.189824         0.255813
 C         1.331687        -0.169627        -0.224563
 C         1.718134        -1.583473        -0.745546
 C         3.122535        -1.066778        -1.012025
 C         3.534303        -0.110638         0.213115
 C         4.033684         0.983091        -0.759877
 C         2.947245         0.452896        -1.734329
 O         1.606320         0.729743        -1.291732
 O         2.241749         0.162676         0.854720
 H        -0.015814        -0.219660         1.263864
 H        -0.295968         1.242170         0.117151
 H        -0.719403        -0.455950        -0.377445
 H         1.706258        -2.275534         0.141358
 H         0.976956        -1.851801        -1.587918
 H         3.896117        -1.607285        -1.533188
 H         4.273118        -0.482674         0.926359
 H         4.092844         1.995471        -0.315844
 H         4.998982         0.732717        -1.240695
 H         3.088177         0.563017        -2.774411
