19
Iteration:  2447
 C        -0.079917         0.206636         0.358036
 C         1.312724        -0.131577        -0.151895
 C         1.742534        -1.492291        -0.731837
 C         3.139225        -1.034154        -1.131924
 C         3.591691        -0.187834         0.228080
 C         3.939273         0.972408        -0.707889
 C         2.976887         0.357464        -1.740976
 O         1.606417         0.741860        -1.407724
 O         2.247667         0.143921         0.845478
 H        -0.265763        -0.422226         1.214281
 H        -0.035566         1.255516         0.570048
 H        -0.763963         0.010710        -0.449641
 H         1.694487        -2.410886        -0.027581
 H         1.062907        -1.863211        -1.513003
 H         3.852060        -1.784128        -1.563632
 H         4.170331        -0.406964         1.136207
 H         3.689751         1.977798        -0.401816
 H         5.013593         0.964564        -1.030325
 H         3.053986         0.479989        -2.864683
