19
Iteration:  4531
 C        -0.191012         0.177219         0.214697
 C         1.352173        -0.102054        -0.194262
 C         1.801844        -1.473260        -0.747599
 C         3.156876        -1.018000        -1.011349
 C         3.617692        -0.167565         0.217299
 C         3.963100         0.921825        -0.738762
 C         2.939748         0.396428        -1.653746
 O         1.572380         0.706688        -1.328463
 O         2.250530         0.135935         0.828950
 H        -0.188727        -0.059405         1.307244
 H        -0.383351         1.304476         0.120668
 H        -0.942826        -0.312465        -0.417628
 H         1.862341        -2.133103         0.046869
 H         1.269019        -1.806683        -1.680413
 H         3.877498        -1.703545        -1.399644
 H         4.306447        -0.512201         1.005460
 H         3.931834         1.983006        -0.473857
 H         4.994059         0.760518        -1.201720
 H         3.025846         0.442030        -2.812045
