19
Iteration:  4444
 C        -0.062397         0.177242         0.202815
 C         1.336152        -0.118417        -0.223914
 C         1.773370        -1.547883        -0.675696
 C         3.128694        -1.015848        -1.092365
 C         3.541675        -0.094106         0.257334
 C         3.954504         0.960255        -0.744619
 C         2.930767         0.375312        -1.725989
 O         1.656349         0.707436        -1.276962
 O         2.214836         0.153973         0.824258
 H        -0.525279        -0.627049         0.886270
 H        -0.022222         1.081832         0.907501
 H        -0.806191         0.389148        -0.607849
 H         1.625004        -2.168568         0.101821
 H         1.088740        -1.940674        -1.389628
 H         3.940454        -1.682592        -1.450095
 H         4.163881        -0.661039         0.982974
 H         3.974091         2.077322        -0.686679
 H         5.053648         0.726061        -1.062633
 H         2.942431         0.446578        -2.872680
