19
Iteration:  3734charge 0 multiplicity 1
 C        -0.136418         0.148649         0.284065
 C         1.315137        -0.111518        -0.190686
 C         1.711762        -1.446228        -0.781454
 C         3.199423        -0.999157        -1.020588
 C         3.588301        -0.184332         0.199347
 C         4.015088         1.016554        -0.673563
 C         2.968475         0.369816        -1.791262
 O         1.579195         0.657826        -1.337738
 O         2.248928         0.134895         0.870112
 H        -0.302899        -0.186842         1.324599
 H        -0.244875         1.237000         0.307576
 H        -0.867253        -0.269740        -0.319362
 H         1.728149        -2.340995        -0.148535
 H         1.233147        -1.783706        -1.680667
 H         3.837747        -1.818957        -1.441901
 H         4.150768        -0.622087         1.021579
 H         3.927832         2.095919        -0.365465
 H         5.021498         0.915360        -1.182567
 H         2.930908         0.823426        -2.806541
