19
Iteration:  4125charge 0 multiplicity 1
 C        -0.069053         0.133211         0.248404
 C         1.307323        -0.059824        -0.235915
 C         1.655245        -1.613625        -0.738435
 C         3.132211        -1.092595        -0.992413
 C         3.616258        -0.217744         0.196303
 C         3.972253         1.044921        -0.732192
 C         2.958446         0.464426        -1.710916
 O         1.606390         0.757578        -1.334779
 O         2.292909         0.144794         0.838278
 H        -0.090442        -0.310477         1.256623
 H        -0.493106         1.181238         0.277309
 H        -0.872037        -0.427374        -0.354594
 H         1.524868        -1.992906         0.245847
 H         1.098338        -1.783521        -1.595300
 H         3.880785        -1.768581        -1.577137
 H         4.374379        -0.445049         0.954691
 H         3.781421         2.043871        -0.271800
 H         4.999765         0.905304        -1.086120
 H         3.142783         0.515201        -2.789416
