19
Iteration:  2488
 C        -0.121088         0.105204         0.309854
 C         1.334951        -0.098303        -0.197777
 C         1.737690        -1.488729        -0.728257
 C         3.127715        -1.061017        -1.081767
 C         3.568732        -0.180369         0.244566
 C         4.021173         0.923801        -0.746720
 C         2.942794         0.365241        -1.698935
 O         1.581885         0.791465        -1.351371
 O         2.285251         0.185306         0.815420
 H        -0.248502        -0.152214         1.389882
 H        -0.328463         1.254064         0.411331
 H        -0.875392        -0.308595        -0.339628
 H         1.708113        -2.284253         0.065346
 H         1.058031        -1.729576        -1.571987
 H         3.788219        -1.617432        -1.762092
 H         4.277906        -0.537410         0.955485
 H         3.753029         1.915016        -0.439128
 H         5.043078         0.780372        -1.056448
 H         3.213137         0.524283        -2.754438
