19
Iteration:   946
 C        -0.055068         0.123627         0.355811
 C         1.353661        -0.173851        -0.124523
 C         1.680105        -1.429468        -0.813087
 C         3.127199        -1.056238        -1.098140
 C         3.597287        -0.214731         0.083630
 C         3.995985         0.961511        -0.799438
 C         2.898016         0.502832        -1.779335
 O         1.587861         0.737987        -1.173066
 O         2.309901         0.130201         0.868209
 H        -0.324117        -0.598878         1.199767
 H        -0.296326         1.069074         0.899070
 H        -0.764758         0.010906        -0.450366
 H         1.375792        -2.351776        -0.242984
 H         1.144911        -1.533918        -1.727209
 H         3.781682        -1.662285        -1.706096
 H         4.260861        -0.509811         0.865307
 H         3.935350         1.928699        -0.328667
 H         5.161676         0.684176        -1.138789
 H         2.804118         0.769804        -2.850576
