19
Iteration:  1205charge 0 multiplicity 1
 C        -0.105551         0.088185         0.390208
 C         1.358710        -0.103189        -0.192128
 C         1.670221        -1.525982        -0.740462
 C         3.044790        -0.991110        -1.099907
 C         3.596513        -0.161274         0.160065
 C         4.000199         0.968120        -0.786924
 C         2.901673         0.497897        -1.780647
 O         1.672596         0.848960        -1.295887
 O         2.293535        -0.002132         0.880632
 H        -0.168569        -0.433039         1.331637
 H        -0.276050         1.143707         0.573516
 H        -0.722377        -0.325024        -0.324614
 H         1.527635        -2.281565         0.055905
 H         1.103537        -1.766633        -1.636228
 H         3.699552        -1.690492        -1.652664
 H         4.169338        -0.642297         0.947630
 H         4.224659         2.019054        -0.350615
 H         4.984213         0.726050        -1.341897
 H         3.008580         0.692641        -2.823758
