19
Iteration:   763
 C        -0.080374         0.173457         0.428244
 C         1.320519        -0.152518        -0.125461
 C         1.684610        -1.441259        -0.756557
 C         3.108801        -0.989407        -1.220952
 C         3.571297        -0.211681         0.125265
 C         3.903492         0.999308        -0.758421
 C         2.946149         0.457229        -1.786015
 O         1.692963         0.821529        -1.258010
 O         2.306384        -0.033074         0.843174
 H        -0.119331        -0.391239         1.321714
 H        -0.041341         1.222629         0.778671
 H        -0.941585        -0.220834        -0.195209
 H         1.801890        -2.297078        -0.042744
 H         1.021790        -1.800201        -1.548677
 H         3.843508        -1.615437        -1.739872
 H         4.178416        -0.619249         0.909065
 H         3.584516         1.918033        -0.357200
 H         4.919614         0.926642        -0.980572
 H         2.919520         0.501182        -2.847380
