19
Iteration:  3808charge 0 multiplicity 1
 C        -0.044812         0.132436         0.325915
 C         1.307841        -0.143173        -0.234794
 C         1.722754        -1.429697        -0.775979
 C         3.111872        -1.007169        -1.077559
 C         3.592494        -0.134198         0.254826
 C         3.968041         1.001987        -0.722361
 C         2.959120         0.365282        -1.669883
 O         1.625695         0.693460        -1.360172
 O         2.257351         0.173710         0.808857
 H        -0.359951        -0.844863         0.786047
 H        -0.263087         0.923378         1.016825
 H        -0.615334         0.027802        -0.585289
 H         1.581411        -2.277867         0.020182
 H         0.968200        -1.747592        -1.542178
 H         3.832617        -1.723212        -1.462446
 H         4.020084        -0.622089         1.172959
 H         3.909123         2.017017        -0.386083
 H         4.957357         0.896417        -1.115645
 H         3.042550         0.317739        -2.752662
