19
Iteration:  2513charge 0 multiplicity 1
 C        -0.095192         0.143835         0.244941
 C         1.329919        -0.172635        -0.191014
 C         1.655491        -1.491661        -0.836544
 C         3.106786        -1.053393        -0.985360
 C         3.552461        -0.121162         0.210036
 C         4.033799         0.978497        -0.810119
 C         2.937312         0.377263        -1.767977
 O         1.613648         0.732494        -1.277016
 O         2.318465         0.193363         0.954018
 H        -0.139289        -0.233141         1.306236
 H        -0.357103         1.216438         0.395917
 H        -0.924843        -0.308939        -0.350312
 H         1.431668        -2.392262        -0.039523
 H         1.162748        -1.716770        -1.865722
 H         3.853017        -1.845024        -1.367629
 H         4.401932        -0.538450         0.816945
 H         3.841926         1.996971        -0.460564
 H         5.081429         0.824557        -1.183198
 H         3.095317         0.518003        -2.909961
