19
Iteration:  2269charge 0 multiplicity 1
 C        -0.135780         0.144862         0.295076
 C         1.308568        -0.113044        -0.089906
 C         1.728050        -1.516340        -0.739687
 C         3.111315        -1.031237        -1.076998
 C         3.619282        -0.202148         0.224381
 C         4.023279         0.946355        -0.715607
 C         2.942356         0.436172        -1.727276
 O         1.546305         0.757160        -1.461904
 O         2.332955         0.167733         0.884109
 H        -0.393785        -0.450719         1.181584
 H        -0.369347         1.203018         0.474985
 H        -0.809887        -0.096765        -0.401697
 H         1.764907        -2.375996        -0.015754
 H         1.170876        -1.554276        -1.731081
 H         3.842144        -1.674305        -1.541722
 H         4.237803        -0.601304         1.060437
 H         3.917293         2.027345        -0.424124
 H         4.952690         0.510746        -1.030524
 H         3.061536         0.502767        -2.831992
