19
Iteration:  4583
 C        -0.156881         0.139118         0.330334
 C         1.313424        -0.074829        -0.265196
 C         1.743256        -1.475561        -0.679536
 C         3.230048        -1.026284        -1.042628
 C         3.469037        -0.210962         0.255257
 C         3.983769         0.991867        -0.759111
 C         3.029563         0.409703        -1.790109
 O         1.605533         0.718705        -1.371715
 O         2.243188         0.139420         0.850136
 H        -0.271405        -0.445849         1.218275
 H        -0.194861         1.153490         0.652968
 H        -0.869623        -0.006278        -0.426466
 H         1.642411        -2.287744         0.103586
 H         1.364978        -1.985778        -1.711263
 H         3.981965        -1.791002        -1.290991
 H         4.105904        -0.530145         1.084771
 H         3.915638         2.011618        -0.463862
 H         5.020851         0.949506        -1.027322
 H         2.982655         0.428767        -2.850428
