19
Iteration:  4053charge 0 multiplicity 1
 C        -0.057095         0.154254         0.369597
 C         1.266400        -0.047191        -0.209668
 C         1.691431        -1.514483        -0.733788
 C         3.193527        -1.078829        -1.088424
 C         3.565202        -0.137402         0.267792
 C         3.937145         0.984449        -0.698410
 C         2.951346         0.308931        -1.741809
 O         1.617193         0.786807        -1.441673
 O         2.274230         0.121306         0.862248
 H        -0.388966        -0.653313         0.983167
 H        -0.286597         1.077513         0.891840
 H        -0.640618         0.061076        -0.566451
 H         1.813405        -2.265249         0.083562
 H         1.243528        -1.836319        -1.761824
 H         3.980362        -1.624835        -1.564342
 H         4.265597        -0.531600         1.022522
 H         3.638664         1.966126        -0.348096
 H         4.977399         0.969730        -1.083720
 H         3.163636         0.532863        -2.834786
