19
Iteration:  4717charge 0 multiplicity 1
 C        -0.024147         0.106325         0.284522
 C         1.337170        -0.119289        -0.280864
 C         1.665108        -1.575720        -0.663776
 C         3.082954        -1.048854        -0.948664
 C         3.549466        -0.137210         0.285949
 C         3.938582         0.985159        -0.698762
 C         2.969530         0.409306        -1.720279
 O         1.620811         0.773036        -1.445770
 O         2.300497         0.181325         0.764722
 H         0.082715        -0.211986         1.312052
 H        -0.389670         1.135255         0.330826
 H        -0.857978        -0.359581        -0.189850
 H         1.827788        -2.279256         0.159580
 H         1.141832        -1.985908        -1.634372
 H         3.679131        -1.670653        -1.625977
 H         4.266983        -0.637877         0.956124
 H         3.634653         1.992068        -0.358465
 H         4.989792         0.808763        -0.865076
 H         3.265852         0.767003        -2.756104
