19
Iteration:  4135charge 0 multiplicity 1
 C        -0.087194         0.104860         0.319866
 C         1.337432        -0.073672        -0.250214
 C         1.690401        -1.561025        -0.739750
 C         3.072408        -1.119094        -1.032532
 C         3.589136        -0.123864         0.252947
 C         3.938959         1.017901        -0.690104
 C         2.978494         0.361060        -1.717632
 O         1.645807         0.816016        -1.366998
 O         2.286560         0.136883         0.771463
 H        -0.151588        -0.242293         1.387224
 H        -0.229935         1.264886         0.320087
 H        -0.874829        -0.405212        -0.366322
 H         1.746913        -2.377279         0.020706
 H         0.894125        -2.080851        -1.309070
 H         3.939192        -1.646937        -1.610883
 H         4.229439        -0.599690         1.008311
 H         3.757067         2.090916        -0.339652
 H         5.022880         1.008351        -1.039303
 H         3.120706         0.730603        -2.722876
