19
Iteration:  4539charge 0 multiplicity 1
 C        -0.115831         0.199234         0.192755
 C         1.313070        -0.122785        -0.256784
 C         1.801850        -1.478438        -0.726600
 C         3.191566        -1.059631        -0.936238
 C         3.577833        -0.200087         0.252120
 C         3.951804         0.951359        -0.760796
 C         2.932318         0.363102        -1.737449
 O         1.531079         0.757139        -1.298500
 O         2.307331         0.154197         0.855807
 H        -0.288210        -0.157660         1.197004
 H        -0.428526         1.191917         0.113369
 H        -0.708058        -0.435190        -0.429138
 H         1.529091        -2.338770        -0.014166
 H         1.116685        -1.727802        -1.683751
 H         3.982258        -1.728708        -1.359906
 H         4.297713        -0.700968         0.900551
 H         3.794730         1.987133        -0.508458
 H         4.921272         0.973854        -1.222895
 H         3.143885         0.783288        -2.693326
