19
Iteration:  4527charge 0 multiplicity 1
 C        -0.194944         0.170951         0.233237
 C         1.316096        -0.095804        -0.167851
 C         1.780010        -1.481504        -0.740808
 C         3.155260        -0.989218        -1.057537
 C         3.618001        -0.157848         0.215500
 C         3.998275         0.944508        -0.728076
 C         2.935591         0.399942        -1.665247
 O         1.609977         0.695086        -1.350267
 O         2.241422         0.132612         0.823792
 H        -0.266176        -0.043865         1.279563
 H        -0.274399         1.206538         0.128363
 H        -0.984635        -0.287856        -0.338989
 H         1.945255        -2.208095         0.162943
 H         1.281511        -1.884967        -1.725027
 H         3.893307        -1.723657        -1.497310
 H         4.248427        -0.393171         1.077619
 H         3.943992         1.961114        -0.365206
 H         4.936050         0.597930        -1.126704
 H         2.959468         0.303075        -2.707398
