19
Iteration:  1955charge 0 multiplicity 1
 C        -0.135556         0.158119         0.294767
 C         1.331171        -0.140712        -0.150881
 C         1.771466        -1.450413        -0.713889
 C         3.152158        -0.967212        -1.109324
 C         3.487092        -0.227259         0.165465
 C         3.959407         1.016469        -0.841450
 C         3.012850         0.367539        -1.823059
 O         1.673710         0.816187        -1.242776
 O         2.239711         0.051085         0.910839
 H        -0.189866        -0.545124         1.303340
 H        -0.026177         1.343368         0.547385
 H        -0.896004        -0.164018        -0.386577
 H         1.634844        -2.178488         0.064991
 H         1.147735        -1.768660        -1.512813
 H         3.806873        -1.755352        -1.458904
 H         4.119109        -0.682348         0.931353
 H         3.643310         1.987493        -0.457354
 H         4.906264         0.719083        -1.058517
 H         2.906132         0.353983        -2.984392
