19
Iteration:   357
 C        -0.027790         0.188193         0.446007
 C         1.338814        -0.131479        -0.063019
 C         1.640805        -1.421018        -0.849146
 C         3.102132        -1.018201        -1.173846
 C         3.671904        -0.242044         0.150446
 C         3.986181         1.074224        -0.683465
 C         2.849556         0.446175        -1.688715
 O         1.540275         0.674012        -1.400847
 O         2.375506         0.031747         0.852336
 H        -0.434227        -0.594518         1.201514
 H        -0.116202         1.177330         0.988846
 H        -0.732800         0.203077        -0.444315
 H         1.408451        -2.256857        -0.103922
 H         1.008041        -1.583326        -1.829315
 H         3.806459        -1.667930        -1.732717
 H         4.437171        -0.656139         0.779935
 H         3.768970         2.040479        -0.313140
 H         5.038405         0.925619        -1.154614
 H         3.032903         0.625825        -2.739035
