19
Iteration:  2781
 C        -0.077955         0.115196         0.334237
 C         1.255960        -0.057629        -0.152879
 C         1.719265        -1.500042        -0.687992
 C         3.090848        -1.041008        -1.009011
 C         3.563074        -0.138496         0.206421
 C         4.006293         0.961695        -0.768286
 C         2.982701         0.313289        -1.720793
 O         1.607123         0.836701        -1.377500
 O         2.315071         0.113309         0.786325
 H        -0.473072        -0.775055         0.841124
 H        -0.309636         1.005134         0.985211
 H        -0.546485         0.164075        -0.664558
 H         1.540562        -2.440449         0.020764
 H         1.196738        -1.945701        -1.554986
 H         3.815370        -1.640888        -1.743940
 H         4.183061        -0.550545         1.009186
 H         3.772735         1.969777        -0.390630
 H         5.081534         1.047162        -1.144862
 H         3.109765         0.396712        -2.782741
