19
Iteration:  1724
 C        -0.090262         0.052204         0.289572
 C         1.300133        -0.109204        -0.182212
 C         1.658006        -1.514071        -0.712582
 C         2.991677        -0.965738        -1.180313
 C         3.623215        -0.166473         0.175369
 C         4.064319         0.972165        -0.712483
 C         2.947068         0.390516        -1.734806
 O         1.641532         0.816536        -1.290951
 O         2.322098         0.143706         0.876823
 H        -0.321761        -0.509987         1.237113
 H        -0.237404         1.133179         0.453739
 H        -0.858292        -0.300466        -0.460976
 H         1.762027        -2.254660         0.094518
 H         0.997855        -2.134176        -1.285659
 H         3.720336        -1.684661        -1.653348
 H         4.244809        -0.713502         0.915719
 H         4.064627         2.003141        -0.417522
 H         5.046228         0.914719        -1.164062
 H         2.842907         0.538045        -2.867214
