19
Iteration:  3157charge 0 multiplicity 1
 C        -0.114548         0.123875         0.273772
 C         1.286052        -0.090506        -0.219836
 C         1.696117        -1.507958        -0.794494
 C         3.154657        -1.048987        -1.140863
 C         3.582462        -0.103159         0.291095
 C         3.997814         0.943457        -0.732102
 C         2.972799         0.306544        -1.691229
 O         1.579715         0.707932        -1.300631
 O         2.294730         0.242304         0.863947
 H        -0.077580        -0.399095         1.237210
 H        -0.356261         1.205463         0.482575
 H        -1.022663        -0.279337        -0.209959
 H         1.871037        -2.450497        -0.161944
 H         1.036231        -1.759378        -1.733512
 H         4.075331        -1.617310        -1.540873
 H         4.075488        -0.567771         1.169207
 H         3.923153         2.035245        -0.800351
 H         5.008303         0.638622        -1.157926
 H         3.176435         0.775064        -2.595981
