19
Iteration:  3909
 C        -0.088321         0.146109         0.271142
 C         1.237256        -0.149238        -0.230103
 C         1.703248        -1.528444        -0.771179
 C         3.161591        -1.043145        -1.010976
 C         3.495544        -0.184840         0.201167
 C         4.014391         1.018849        -0.737252
 C         2.954000         0.463088        -1.721393
 O         1.615443         0.733865        -1.337231
 O         2.316202         0.110457         0.832982
 H        -0.093888        -0.159519         1.267553
 H        -0.072895         1.224652         0.399977
 H        -0.988606        -0.121851        -0.190373
 H         1.929876        -2.241000         0.069049
 H         1.255334        -1.946318        -1.692647
 H         3.951486        -1.820634        -1.276952
 H         4.086550        -0.388596         1.094894
 H         3.896613         2.004818        -0.258058
 H         5.028709         0.766126        -1.023189
 H         2.971851         0.763506        -2.808824
