19
Iteration:  3108charge 0 multiplicity 1
 C        -0.073778         0.204853         0.288748
 C         1.282256        -0.065328        -0.279168
 C         1.692029        -1.510582        -0.757009
 C         3.141946        -1.130220        -1.093641
 C         3.549369        -0.199437         0.222905
 C         3.912039         0.991437        -0.703730
 C         2.959876         0.425343        -1.759462
 O         1.624081         0.690044        -1.317936
 O         2.348477         0.165083         0.904627
 H        -0.224697        -0.112108         1.336886
 H        -0.421731         1.214523         0.205292
 H        -0.835713        -0.380098        -0.265906
 H         1.743664        -2.201529         0.012800
 H         1.304046        -1.947437        -1.597946
 H         3.894916        -1.717726        -1.470445
 H         4.324168        -0.340790         0.976947
 H         3.658985         1.954667        -0.254026
 H         4.948698         0.984538        -0.922532
 H         3.089763         0.530846        -2.896928
