19
Iteration:  4866
 C        -0.169299         0.154055         0.263687
 C         1.256917        -0.140929        -0.152647
 C         1.754954        -1.479836        -0.676082
 C         3.167216        -0.985834        -1.009977
 C         3.498189        -0.128996         0.196414
 C         4.041185         0.980830        -0.815036
 C         2.992293         0.359356        -1.758738
 O         1.675270         0.703318        -1.325816
 O         2.232282         0.114299         0.817945
 H        -0.620937        -0.415929         1.093695
 H        -0.065152         1.154157         0.822195
 H        -0.848090         0.314144        -0.580400
 H         1.835001        -2.265282         0.008327
 H         1.197890        -1.814660        -1.426164
 H         3.995349        -1.678340        -1.332171
 H         4.064413        -0.438972         1.075714
 H         3.980233         2.081562        -0.671762
 H         5.085593         0.720138        -1.054667
 H         2.963562         0.416110        -2.846521
