19
Iteration:  4712charge 0 multiplicity 1
 C        -0.031364         0.124397         0.282380
 C         1.314210        -0.103194        -0.276077
 C         1.719501        -1.537448        -0.683196
 C         3.077631        -1.032737        -0.929880
 C         3.565527        -0.132295         0.229720
 C         3.947527         0.965095        -0.686413
 C         2.999249         0.427862        -1.747431
 O         1.585096         0.715072        -1.425609
 O         2.279966         0.174391         0.778333
 H        -0.025933        -0.305940         1.313814
 H        -0.272682         1.200032         0.343959
 H        -0.908511        -0.450204        -0.154993
 H         1.667441        -2.261078         0.163554
 H         1.191630        -1.867912        -1.587754
 H         3.678107        -1.651005        -1.597234
 H         4.219680        -0.561942         1.000488
 H         3.838997         1.951528        -0.219159
 H         5.027388         0.742313        -0.883118
 H         3.240552         0.696340        -2.764402
