19
Iteration:  3709charge 0 multiplicity 1
 C        -0.033491         0.067571         0.294748
 C         1.354442        -0.111478        -0.244340
 C         1.670508        -1.556885        -0.702708
 C         3.161511        -1.037356        -1.026603
 C         3.551360        -0.191097         0.241332
 C         3.943843         0.981163        -0.635172
 C         2.904864         0.345406        -1.781949
 O         1.640438         0.906863        -1.395777
 O         2.278587         0.149426         0.794546
 H        -0.055177        -0.306488         1.322701
 H        -0.300984         1.124078         0.338342
 H        -0.845817        -0.440411        -0.282180
 H         1.566272        -2.361780         0.135916
 H         1.191103        -2.111981        -1.579222
 H         3.927926        -1.705066        -1.393696
 H         4.174921        -0.480353         1.161792
 H         3.710593         1.996256        -0.355918
 H         4.936090         1.036692        -1.093728
 H         2.962831         0.647408        -2.847875
