19
Iteration:  4590
 C        -0.128865         0.151185         0.308193
 C         1.327444        -0.113433        -0.256760
 C         1.798736        -1.557937        -0.767085
 C         3.156816        -1.028520        -0.961510
 C         3.534323        -0.158081         0.251051
 C         4.007269         0.973789        -0.694724
 C         2.934171         0.396225        -1.782019
 O         1.585938         0.756639        -1.408646
 O         2.238653         0.160694         0.833744
 H        -0.372398        -0.519184         1.169469
 H        -0.057231         1.157711         0.769354
 H        -1.087794         0.059270        -0.316011
 H         1.609059        -2.190966         0.152726
 H         1.245743        -1.914162        -1.550693
 H         3.998231        -1.646510        -1.397769
 H         4.333499        -0.441723         0.954773
 H         4.013268         2.071154        -0.390322
 H         5.073247         0.700605        -0.947475
 H         3.095276         0.350904        -2.881963
