19
Iteration:  3988charge 0 multiplicity 1
 C        -0.084461         0.144465         0.294552
 C         1.294730        -0.132829        -0.274196
 C         1.779018        -1.468471        -0.722952
 C         3.206445        -0.985812        -1.052186
 C         3.491263        -0.170096         0.207667
 C         3.930839         0.949637        -0.746961
 C         2.947164         0.369007        -1.796674
 O         1.614990         0.741801        -1.299288
 O         2.287568         0.115874         0.923012
 H        -0.486531        -0.653201         0.903932
 H        -0.178513         1.180656         0.556341
 H        -0.761934         0.241116        -0.608799
 H         1.669814        -2.106997         0.211059
 H         1.060399        -1.869166        -1.558085
 H         3.993476        -1.651964        -1.383114
 H         4.198281        -0.693034         0.867143
 H         3.858989         2.011520        -0.430107
 H         4.985835         0.706093        -1.143898
 H         3.046789         0.900590        -2.766252
