19
Iteration:   617charge 0 multiplicity 1
 C         0.097902         0.186764         0.414799
 C         1.338182        -0.117628        -0.288861
 C         1.663580        -1.583715        -0.737679
 C         3.079690        -0.999090        -1.050698
 C         3.542908        -0.248484         0.145552
 C         3.960067         0.986926        -0.699360
 C         2.805139         0.556194        -1.704679
 O         1.562443         0.896975        -1.276800
 O         2.347388        -0.052712         0.747215
 H         0.133655        -0.463123         1.380505
 H        -0.069726         1.264187         0.545196
 H        -0.637200        -0.141150        -0.293636
 H         1.623535        -2.238792         0.151613
 H         1.307561        -2.030694        -1.717112
 H         3.705797        -1.668831        -1.627395
 H         4.395192        -0.540039         0.857844
 H         3.923897         1.796826        -0.096264
 H         4.860018         0.725536        -1.275687
 H         2.952301         0.680052        -2.866954
