19
Iteration:  3113charge 0 multiplicity 1
 C        -0.072204         0.190072         0.298790
 C         1.297783        -0.052116        -0.310826
 C         1.719775        -1.537058        -0.734996
 C         3.139753        -1.098125        -1.089843
 C         3.568173        -0.192895         0.276406
 C         3.910266         0.995994        -0.718621
 C         2.994064         0.402559        -1.730466
 O         1.595192         0.748862        -1.339133
 O         2.329473         0.128534         0.868829
 H        -0.188819        -0.195989         1.322224
 H        -0.513800         1.230203         0.142977
 H        -0.885976        -0.374597        -0.177022
 H         1.653218        -2.206689         0.219685
 H         0.940185        -1.947075        -1.568470
 H         3.894076        -1.811162        -1.625790
 H         4.443349        -0.367524         0.940776
 H         3.693876         1.940036        -0.182716
 H         4.976043         1.070343        -1.118238
 H         3.111554         0.384856        -2.780183
