19
Iteration:  1325
 C        -0.135274         0.087331         0.340788
 C         1.320265        -0.063989        -0.123413
 C         1.691057        -1.454899        -0.816686
 C         3.108595        -0.973198        -1.073930
 C         3.609251        -0.260655         0.137418
 C         4.037011         0.992060        -0.739257
 C         2.908122         0.401184        -1.704038
 O         1.555699         0.748536        -1.342153
 O         2.336016         0.114123         0.889587
 H        -0.274114        -0.736844         1.105756
 H        -0.065493         1.090659         0.847228
 H        -0.745650         0.046403        -0.487301
 H         1.580335        -2.308974        -0.147938
 H         1.011614        -1.441616        -1.631953
 H         3.872259        -1.693716        -1.503915
 H         4.358589        -0.723488         0.752671
 H         4.080248         2.031703        -0.227497
 H         4.927078         0.952351        -1.472182
 H         3.123317         0.508633        -2.705887
