19
Iteration:  1538charge 0 multiplicity 1
 C        -0.092284         0.230544         0.348744
 C         1.275547        -0.083353        -0.154714
 C         1.753975        -1.569331        -0.808326
 C         3.148016        -1.014856        -1.118657
 C         3.602534        -0.257298         0.110112
 C         3.897450         0.949396        -0.680829
 C         2.905307         0.464473        -1.753815
 O         1.619690         0.711588        -1.279312
 O         2.340564         0.124604         0.866074
 H        -0.324038        -0.320435         1.188129
 H        -0.064950         1.291175         0.526059
 H        -0.831206         0.082995        -0.334164
 H         1.626291        -2.428302        -0.085701
 H         1.108900        -1.636773        -1.711658
 H         3.806935        -1.635403        -1.695065
 H         4.375154        -0.717751         0.777370
 H         3.810128         1.878867        -0.099763
 H         5.026273         1.091820        -0.832064
 H         2.824464         0.637440        -2.894579
