19
Iteration:  2541
 C        -0.111801         0.230179         0.321776
 C         1.367612        -0.103536        -0.202142
 C         1.770155        -1.463707        -0.691937
 C         3.191247        -1.045636        -1.013701
 C         3.522714        -0.181865         0.195404
 C         3.929506         0.958622        -0.739388
 C         2.912915         0.357837        -1.786539
 O         1.618800         0.800523        -1.318406
 O         2.257145         0.060091         0.770650
 H        -0.156463        -0.492717         1.132161
 H        -0.381614         1.279861         0.587930
 H        -0.840755        -0.127988        -0.371388
 H         1.722274        -2.041580         0.144715
 H         1.295812        -2.099229        -1.370581
 H         3.808151        -1.812591        -1.417915
 H         4.260831        -0.523807         0.861997
 H         3.787590         1.983009        -0.386077
 H         4.954884         0.855847        -1.093485
 H         3.151578         0.450058        -2.793237
