19
Iteration:   281charge 0 multiplicity 1
 C        -0.011418         0.098276         0.405807
 C         1.372225        -0.063240        -0.100347
 C         1.689124        -1.484069        -0.942833
 C         3.081292        -1.062016        -1.153181
 C         3.571728        -0.251386         0.168088
 C         3.929099         0.969384        -0.790299
 C         2.839431         0.412742        -1.730964
 O         1.623230         0.788212        -1.219225
 O         2.356964         0.189357         0.917498
 H        -0.335696        -0.672672         1.163157
 H        -0.263154         1.077895         0.910731
 H        -0.663853        -0.120269        -0.541015
 H         1.575318        -2.487956        -0.460033
 H         0.905140        -1.441614        -1.781633
 H         3.858720        -1.700728        -1.561972
 H         4.339964        -0.651448         0.803268
 H         3.998933         1.863723        -0.284408
 H         4.898481         0.756362        -1.312346
 H         2.954766         0.566452        -2.839569
