19
Iteration:   560charge 0 multiplicity 1
 C         0.009474         0.057846         0.388918
 C         1.331321        -0.059938        -0.301379
 C         1.642891        -1.452212        -0.787809
 C         3.080506        -1.020935        -1.096448
 C         3.574567        -0.211070         0.183368
 C         4.016240         0.937828        -0.825895
 C         2.857818         0.418603        -1.657897
 O         1.591190         0.920099        -1.203343
 O         2.352578         0.014415         0.847607
 H        -0.125188        -0.679550         1.165752
 H        -0.212658         1.044423         0.848547
 H        -0.786777        -0.217862        -0.421736
 H         1.444588        -2.220979        -0.039485
 H         1.127679        -1.726524        -1.720681
 H         3.678711        -1.684880        -1.702217
 H         4.349510        -0.634515         0.936288
 H         4.001787         1.968632        -0.483329
 H         4.947823         0.854288        -1.346921
 H         2.928793         0.569202        -2.837850
