19
Iteration:  4851charge 0 multiplicity 1
 C        -0.157290         0.226845         0.335403
 C         1.287755        -0.153193        -0.279404
 C         1.831503        -1.590905        -0.766053
 C         3.166533        -1.064355        -1.055203
 C         3.592472        -0.097790         0.279650
 C         4.033218         0.926479        -0.768641
 C         2.951131         0.298935        -1.735405
 O         1.575897         0.747310        -1.306549
 O         2.181556         0.270282         0.858869
 H        -0.421540        -0.730706         0.779654
 H        -0.058045         1.069556         0.971214
 H        -0.859320         0.286536        -0.516229
 H         1.665681        -2.355868         0.066126
 H         1.331442        -1.935597        -1.780259
 H         3.887554        -1.725453        -1.494708
 H         4.309351        -0.403828         1.064712
 H         3.998014         1.982490        -0.455253
 H         5.060303         0.763202        -1.155963
 H         3.104355         0.482036        -2.902337
