19
Iteration:  2429
 C        -0.068744         0.233083         0.311241
 C         1.343871        -0.169962        -0.137736
 C         1.734503        -1.544329        -0.904468
 C         3.120412        -1.052682        -1.004537
 C         3.538954        -0.125058         0.219580
 C         3.916315         0.971382        -0.773838
 C         2.951571         0.322049        -1.760130
 O         1.612970         0.663438        -1.282344
 O         2.327428         0.233611         0.914624
 H        -0.570484        -0.539314         0.924077
 H         0.002204         1.285985         0.623975
 H        -0.918284         0.263578        -0.457432
 H         1.557904        -2.445124        -0.340268
 H         1.216243        -1.532135        -1.855826
 H         3.940233        -1.620373        -1.434503
 H         4.225960        -0.651407         0.911347
 H         3.736606         2.035911        -0.484748
 H         4.989859         1.024924        -1.040105
 H         2.940720         0.469536        -2.821028
