19
Iteration:    74charge 0 multiplicity 1
 C        -0.128130         0.212334         0.421472
 C         1.247274        -0.194405        -0.164679
 C         1.731723        -1.496537        -0.877132
 C         3.136745        -0.982949        -1.102421
 C         3.658395        -0.277496         0.148565
 C         3.961439         0.969671        -0.741019
 C         2.851836         0.465318        -1.647457
 O         1.569584         0.785032        -1.275990
 O         2.404340         0.088998         0.816923
 H        -0.230026        -0.283290         1.356541
 H        -0.071046         1.293893         0.685864
 H        -0.928829        -0.075601        -0.338215
 H         1.626431        -2.359179        -0.245384
 H         1.090924        -1.715220        -1.773900
 H         3.880708        -1.645511        -1.517021
 H         4.393241        -0.833927         0.724603
 H         3.755417         1.925528        -0.323862
 H         4.979434         0.956482        -1.325300
 H         3.017247         0.661547        -2.807142
