19
Iteration:  4873
 C        -0.129651         0.183539         0.256049
 C         1.289999        -0.160106        -0.161565
 C         1.720371        -1.464767        -0.670137
 C         3.127735        -0.996100        -1.007638
 C         3.494416        -0.150075         0.179523
 C         3.983745         1.017160        -0.801963
 C         2.993751         0.353472        -1.719360
 O         1.662163         0.721458        -1.350880
 O         2.277377         0.090772         0.844794
 H        -0.506335        -0.570684         0.952501
 H        -0.117760         1.177103         0.644970
 H        -0.702813         0.058350        -0.668987
 H         1.637375        -2.155874         0.240610
 H         1.122301        -1.910753        -1.560421
 H         3.993869        -1.575921        -1.145081
 H         4.245718        -0.425362         0.934750
 H         3.995217         2.094955        -0.824321
 H         5.029378         0.681885        -0.954083
 H         3.111107         0.493055        -2.885204
