19
Iteration:  3665charge 0 multiplicity 1
 C        -0.085831         0.141821         0.282826
 C         1.339298        -0.139318        -0.195706
 C         1.809234        -1.531085        -0.813520
 C         3.127154        -1.040847        -0.977490
 C         3.621011        -0.132824         0.289610
 C         3.971015         0.954446        -0.753310
 C         2.904989         0.413034        -1.753805
 O         1.520896         0.754863        -1.357151
 O         2.272754         0.188771         0.863337
 H        -0.561835        -0.419454         1.056510
 H        -0.210993         1.175560         0.581687
 H        -0.722972        -0.051849        -0.641337
 H         1.621944        -2.484610        -0.141477
 H         1.074285        -1.852159        -1.663093
 H         3.888202        -1.570458        -1.489249
 H         4.424745        -0.621777         0.980151
 H         4.034980         1.951526        -0.328389
 H         5.050811         0.747796        -1.008703
 H         3.063927         0.311229        -2.850216
