19
Iteration:    21
 C        -0.227866         0.046034         0.492438
 C         1.207780        -0.002189        -0.225418
 C         1.735775        -1.533316        -0.739523
 C         3.155167        -1.066170        -1.143800
 C         3.597766        -0.234905         0.125134
 C         4.051928         0.952467        -0.788786
 C         2.988144         0.387699        -1.795374
 O         1.632213         1.014269        -1.179982
 O         2.303267         0.020553         0.749312
 H        -0.068294        -0.515226         1.302352
 H        -0.476577         1.052213         0.738617
 H        -0.966415        -0.396193        -0.177425
 H         1.803542        -2.043377         0.141467
 H         1.167453        -2.018224        -1.520804
 H         3.789860        -1.762005        -1.690333
 H         4.284255        -0.647571         0.833141
 H         3.813175         1.882846        -0.347634
 H         5.173165         1.017482        -1.013465
 H         3.014794         0.545982        -2.938040
