19
Iteration:  1673
 C        -0.022772         0.204663         0.426748
 C         1.287393        -0.172182        -0.268752
 C         1.694834        -1.535667        -0.805961
 C         3.101116        -0.971702        -1.075281
 C         3.513870        -0.121288         0.211817
 C         3.973140         0.964182        -0.777456
 C         3.039372         0.425922        -1.749981
 O         1.602072         0.756361        -1.342595
 O         2.287832         0.053359         0.899164
 H        -0.234672        -0.581574         1.232573
 H         0.018821         1.208326         0.852810
 H        -0.849086         0.109446        -0.157403
 H         1.428902        -2.410310        -0.189918
 H         1.053945        -1.948303        -1.631637
 H         3.855927        -1.682137        -1.558360
 H         4.196018        -0.649843         0.844131
 H         3.778772         2.066738        -0.453001
 H         5.081177         1.006870        -1.053682
 H         2.996052         0.658637        -2.789586
