19
Iteration:  3993charge 0 multiplicity 1
 C        -0.122192         0.174519         0.287928
 C         1.265839        -0.128386        -0.278477
 C         1.753523        -1.509607        -0.701605
 C         3.243153        -1.001938        -1.028456
 C         3.494265        -0.197036         0.192236
 C         3.910359         0.942210        -0.766226
 C         2.960015         0.429715        -1.788793
 O         1.614213         0.764287        -1.309890
 O         2.293271         0.119827         0.925182
 H        -0.387283        -0.726929         0.917292
 H        -0.025042         1.228679         0.716696
 H        -0.718166         0.199729        -0.612105
 H         1.700417        -2.260617         0.056369
 H         1.329768        -2.039613        -1.496845
 H         4.069379        -1.644672        -1.394841
 H         4.202997        -0.646364         0.893958
 H         3.950410         1.980061        -0.429518
 H         4.883839         0.684117        -1.154905
 H         3.017471         0.828914        -2.801700
