19
Iteration:  3144
 C        -0.118754         0.124881         0.357616
 C         1.315029        -0.119156        -0.215124
 C         1.768299        -1.536548        -0.772767
 C         3.140588        -1.037157        -1.025123
 C         3.496241        -0.156758         0.218327
 C         4.005329         0.949419        -0.738864
 C         2.988465         0.445213        -1.784622
 O         1.620145         0.735936        -1.351016
 O         2.254757         0.193350         0.844010
 H        -0.214264        -0.246765         1.412608
 H        -0.359534         1.257604         0.314997
 H        -0.741815        -0.422738        -0.353264
 H         1.542935        -2.247186         0.059060
 H         1.067833        -1.749990        -1.632433
 H         3.870141        -1.828347        -1.398369
 H         4.302009        -0.472590         0.902982
 H         3.994192         1.888906        -0.176893
 H         5.027129         0.730269        -1.085292
 H         2.977118         0.448782        -2.871440
