19
Iteration:  4130charge 0 multiplicity 1
 C        -0.082652         0.112719         0.279392
 C         1.322968        -0.047772        -0.237526
 C         1.675563        -1.605188        -0.756968
 C         3.099154        -1.132730        -0.998276
 C         3.620003        -0.173157         0.233920
 C         3.949470         1.053625        -0.718050
 C         2.971952         0.416024        -1.715450
 O         1.626343         0.787611        -1.349196
 O         2.286067         0.140486         0.800891
 H        -0.102978        -0.280658         1.292284
 H        -0.372961         1.136618         0.247687
 H        -0.850629        -0.318292        -0.283722
 H         1.646653        -2.185306         0.222544
 H         0.794945        -1.991024        -1.479268
 H         3.825493        -1.581800        -1.575021
 H         4.377351        -0.526296         0.966683
 H         3.823119         2.041089        -0.312979
 H         5.003958         0.960999        -1.029486
 H         3.187012         0.674053        -2.788416
