19
Iteration:  4263charge 0 multiplicity 1
 C        -0.122672         0.156492         0.350066
 C         1.266341        -0.114093        -0.250864
 C         1.790066        -1.606563        -0.812629
 C         3.172897        -1.035648        -1.132157
 C         3.559252        -0.103364         0.291126
 C         3.968851         0.904350        -0.656173
 C         2.936746         0.299522        -1.728334
 O         1.596217         0.775560        -1.362459
 O         2.267666         0.251346         0.842162
 H        -0.343366        -0.553059         1.119227
 H         0.000370         1.150691         0.770696
 H        -0.798815         0.104437        -0.450241
 H         1.624824        -2.383439        -0.010272
 H         1.297044        -1.649762        -1.817122
 H         4.044478        -1.646026        -1.308317
 H         4.300697        -0.390067         1.046815
 H         3.809757         1.974474        -0.450307
 H         4.932518         0.609828        -1.023204
 H         3.055736         0.607486        -2.751636
