19
Iteration:  4983
 C        -0.093182         0.062406         0.179935
 C         1.308944        -0.094499        -0.194695
 C         1.607263        -1.409082        -0.661873
 C         3.097622        -1.047164        -1.038116
 C         3.626920        -0.196669         0.234870
 C         3.921160         1.076107        -0.730307
 C         3.041749         0.271709        -1.723700
 O         1.655195         0.675450        -1.326432
 O         2.296359         0.208954         0.849681
 H        -0.469356        -0.329108         1.083568
 H        -0.146618         1.115333         0.448420
 H        -0.709350        -0.026924        -0.656071
 H         1.677888        -2.298466         0.090462
 H         1.018686        -1.755320        -1.641071
 H         3.738662        -1.802372        -1.483990
 H         4.447958        -0.344925         0.917065
 H         3.573729         2.024793        -0.336789
 H         4.938577         1.159527        -1.174563
 H         3.188385         0.412263        -2.873138
