19
Iteration:  4767charge 0 multiplicity 1
 C        -0.083309         0.163673         0.207057
 C         1.343019        -0.145928        -0.198288
 C         1.731897        -1.571552        -0.796039
 C         3.121386        -1.064834        -0.973962
 C         3.578520        -0.058433         0.274567
 C         4.018913         1.041666        -0.836496
 C         2.930574         0.351419        -1.685719
 O         1.562209         0.719758        -1.341860
 O         2.272123         0.127903         0.922791
 H        -0.436529        -0.186005         1.194090
 H        -0.238898         1.291370         0.251270
 H        -0.783735        -0.134455        -0.608448
 H         1.582393        -2.248782        -0.000306
 H         1.006953        -1.766999        -1.572976
 H         3.956514        -1.500359        -1.499525
 H         4.253303        -0.393872         1.053980
 H         4.145948         1.989486        -0.363764
 H         4.933416         0.674534        -1.372773
 H         3.144557         0.379166        -2.729632
