19
Iteration:  3610
 C        -0.078499         0.136262         0.300953
 C         1.366491        -0.117208        -0.191953
 C         1.778891        -1.456841        -0.687669
 C         3.165864        -1.032028        -0.990597
 C         3.555773        -0.187592         0.253531
 C         3.881335         0.981276        -0.730079
 C         2.959459         0.363189        -1.779111
 O         1.607159         0.756222        -1.446649
 O         2.257545         0.129795         0.850493
 H        -0.423134        -0.678156         0.880225
 H        -0.171690         1.042090         0.861670
 H        -0.860878         0.314521        -0.473245
 H         1.625048        -2.343248         0.049470
 H         1.088159        -1.621691        -1.599110
 H         3.951987        -1.656055        -1.321098
 H         4.250636        -0.845070         0.829270
 H         3.743478         1.977470        -0.355597
 H         4.949684         1.044488        -1.071988
 H         3.067801         0.605892        -2.828727
