19
Iteration:  3015charge 0 multiplicity 1
 C        -0.105757         0.071827         0.249971
 C         1.268601        -0.054163        -0.203959
 C         1.658435        -1.477725        -0.713503
 C         3.202001        -1.024026        -0.993201
 C         3.556646        -0.235948         0.213265
 C         3.970378         0.984445        -0.740484
 C         2.979569         0.376435        -1.702853
 O         1.580917         0.716344        -1.359512
 O         2.368938         0.203932         0.815566
 H        -0.493692        -0.750523         0.852588
 H        -0.015902         0.922797         0.998707
 H        -0.814391         0.386629        -0.479239
 H         1.361211        -2.322407        -0.006716
 H         1.173651        -1.739518        -1.752200
 H         3.878819        -1.787789        -1.420152
 H         4.190593        -0.392429         1.094373
 H         3.881880         2.030775        -0.364332
 H         4.956841         0.810303        -1.265392
 H         2.935359         0.689265        -2.730978
