19
Iteration:  3354charge 0 multiplicity 1
 C        -0.102641         0.236689         0.347370
 C         1.337764        -0.105268        -0.237059
 C         1.756323        -1.500132        -0.772679
 C         3.178407        -1.040765        -0.969813
 C         3.539485        -0.183504         0.215223
 C         3.935230         0.993712        -0.727299
 C         3.023595         0.347380        -1.772783
 O         1.587583         0.755081        -1.388446
 O         2.249580         0.110326         0.839943
 H        -0.139031        -0.414342         1.260365
 H        -0.385994         1.271049         0.507889
 H        -0.804590        -0.384823        -0.305063
 H         1.740215        -2.241568         0.045078
 H         1.109824        -1.912788        -1.573374
 H         3.949895        -1.577624        -1.393033
 H         4.157654        -0.669694         0.958186
 H         3.650390         1.889075        -0.232592
 H         4.898868         1.106522        -1.153640
 H         3.018084         0.374044        -2.801724
