19
Iteration:  4151
 C        -0.049004         0.155700         0.348613
 C         1.271065        -0.131505        -0.202650
 C         1.786134        -1.481292        -0.732692
 C         3.163978        -0.999401        -1.081630
 C         3.497139        -0.224995         0.213949
 C         3.956266         0.960786        -0.715896
 C         2.992626         0.381189        -1.769188
 O         1.628747         0.741058        -1.351110
 O         2.217450         0.168617         0.812609
 H        -0.074933        -0.366772         1.287303
 H        -0.280037         1.165924         0.424885
 H        -0.854918        -0.187234        -0.217769
 H         1.719851        -2.080638         0.175461
 H         1.256484        -1.666961        -1.682209
 H         3.802379        -1.756627        -1.431952
 H         4.226730        -0.477227         0.996700
 H         3.685272         1.924575        -0.356798
 H         5.010299         0.878340        -0.900521
 H         3.156109         0.348007        -2.874210
