19
Iteration:  4707
 C        -0.063210         0.139470         0.299129
 C         1.287334        -0.094087        -0.267361
 C         1.766500        -1.485287        -0.692161
 C         3.117206        -1.021437        -0.969653
 C         3.562699        -0.157881         0.184915
 C         3.983563         0.956085        -0.665494
 C         2.999072         0.427905        -1.741410
 O         1.558773         0.667261        -1.407278
 O         2.250615         0.174731         0.801812
 H        -0.094843        -0.308853         1.297673
 H        -0.170774         1.230031         0.355913
 H        -0.834458        -0.454477        -0.232120
 H         1.502754        -2.191721         0.101057
 H         1.192946        -1.803383        -1.595521
 H         3.852745        -1.722378        -1.438767
 H         4.177168        -0.440607         1.063045
 H         4.011571         1.960027        -0.177885
 H         5.015673         0.783699        -1.033001
 H         3.162147         0.560734        -2.898713
