19
Iteration:  1502charge 0 multiplicity 1
 C        -0.114700         0.179392         0.361039
 C         1.335156        -0.123269        -0.231431
 C         1.720695        -1.483185        -0.729164
 C         3.108148        -0.979606        -1.099222
 C         3.567331        -0.209439         0.161983
 C         3.999223         0.985635        -0.749822
 C         2.909011         0.462563        -1.793004
 O         1.589534         0.812095        -1.315076
 O         2.321699        -0.019448         0.917158
 H        -0.317395        -0.496371         1.205009
 H        -0.148053         1.155666         0.805785
 H        -0.877284         0.115907        -0.458512
 H         1.762340        -2.252651         0.031134
 H         1.153629        -1.891968        -1.596451
 H         3.837241        -1.568196        -1.657996
 H         4.398467        -0.584967         0.780800
 H         3.863378         1.971081        -0.352254
 H         4.965056         0.639695        -1.036374
 H         3.089766         0.505928        -2.862018
