19
Iteration:   794charge 0 multiplicity 1
 C        -0.037301         0.107241         0.418902
 C         1.323205        -0.183009        -0.164934
 C         1.689922        -1.481631        -0.833619
 C         3.126974        -1.004603        -1.110095
 C         3.620894        -0.249023         0.176132
 C         4.008611         0.908533        -0.750696
 C         2.845655         0.527239        -1.685479
 O         1.515648         0.859194        -1.309048
 O         2.345892         0.092376         0.812558
 H        -0.051813        -0.316694         1.437524
 H        -0.067108         1.230946         0.581376
 H        -0.971125        -0.289554        -0.063910
 H         1.630144        -2.400401        -0.181110
 H         1.165108        -1.669630        -1.791401
 H         3.814193        -1.607336        -1.727279
 H         4.255425        -0.618986         0.984193
 H         4.032882         1.830297        -0.276919
 H         5.018045         0.792256        -1.218417
 H         3.057476         0.591279        -2.867325
