19
Iteration:  4447charge 0 multiplicity 1
 C        -0.065844         0.183687         0.228715
 C         1.340814        -0.146220        -0.243558
 C         1.751720        -1.517340        -0.692395
 C         3.132902        -1.014460        -1.064699
 C         3.534560        -0.087843         0.236461
 C         3.968625         0.977485        -0.740977
 C         2.934365         0.376472        -1.733213
 O         1.680711         0.677459        -1.282456
 O         2.216485         0.165739         0.840779
 H        -0.523259        -0.628374         0.812253
 H        -0.081169         1.088767         0.905700
 H        -0.778637         0.289172        -0.600056
 H         1.591763        -2.203589         0.184889
 H         1.126206        -1.862693        -1.458679
 H         3.816831        -1.692744        -1.472302
 H         4.147314        -0.702126         0.887192
 H         3.889966         2.079729        -0.576465
 H         4.964695         0.681864        -1.139664
 H         2.934960         0.460352        -2.822697
