19
Iteration:  3098charge 0 multiplicity 1
 C        -0.103987         0.217366         0.263526
 C         1.314373        -0.156650        -0.137149
 C         1.735140        -1.498629        -0.776309
 C         3.144178        -1.036044        -1.037895
 C         3.531011        -0.172905         0.156126
 C         3.928081         0.981277        -0.693538
 C         2.942043         0.368341        -1.779559
 O         1.642027         0.678581        -1.339947
 O         2.317475         0.178818         0.895531
 H        -0.132331        -0.072321         1.341060
 H        -0.127290         1.303287         0.200022
 H        -0.798751        -0.311698        -0.403963
 H         1.666343        -2.308442        -0.103426
 H         1.269422        -1.729238        -1.707301
 H         3.812189        -1.771222        -1.331774
 H         4.152959        -0.706469         0.865636
 H         3.624993         1.987528        -0.422464
 H         4.954989         0.888368        -0.926389
 H         2.943864         0.827640        -2.805779
