19
Iteration:  3657
 C        -0.043426         0.162518         0.233282
 C         1.347951        -0.179618        -0.178499
 C         1.775447        -1.531353        -0.762156
 C         3.181150        -1.020350        -0.985745
 C         3.541568        -0.183444         0.199094
 C         3.992640         0.940722        -0.761607
 C         2.918036         0.412471        -1.684385
 O         1.506736         0.760251        -1.336532
 O         2.264307         0.180727         0.865567
 H        -0.435579        -0.539876         0.980359
 H        -0.104068         1.183873         0.565893
 H        -0.702161         0.155721        -0.598437
 H         1.587196        -2.354062        -0.028380
 H         1.463948        -1.728599        -1.803423
 H         3.910928        -1.771863        -1.326594
 H         4.273817        -0.312327         1.017449
 H         3.824919         2.003596        -0.402082
 H         5.049680         0.868108        -1.225964
 H         2.837535         0.489366        -2.823725
