19
Iteration:   782charge 0 multiplicity 1
 C        -0.002414         0.139385         0.465794
 C         1.285698        -0.105260        -0.203541
 C         1.694338        -1.528680        -0.857287
 C         3.049750        -0.993413        -1.178935
 C         3.528978        -0.215164         0.121653
 C         4.052553         1.020379        -0.715069
 C         2.973659         0.478699        -1.740811
 O         1.534696         0.754906        -1.264392
 O         2.326557         0.059729         0.889716
 H        -0.029803        -0.367776         1.483759
 H        -0.210621         1.258105         0.521163
 H        -0.738027        -0.230584        -0.247239
 H         1.732343        -2.292958        -0.039044
 H         1.074027        -1.870929        -1.714053
 H         3.825559        -1.713530        -1.477814
 H         4.267612        -0.800427         0.698580
 H         3.976869         2.036003        -0.427330
 H         5.075300         0.683879        -1.118787
 H         2.859697         0.974009        -2.848536
