19
Iteration:  1177
 C        -0.157564         0.199134         0.385483
 C         1.360654        -0.103643        -0.167863
 C         1.755658        -1.539127        -0.900625
 C         3.136621        -1.068792        -1.157260
 C         3.633467        -0.208570         0.121369
 C         3.962998         0.959710        -0.695630
 C         2.858535         0.377590        -1.703649
 O         1.544524         0.780308        -1.185205
 O         2.396163         0.167532         0.862023
 H        -0.437962        -0.278073         1.319199
 H        -0.260304         1.284797         0.464552
 H        -0.734581        -0.304871        -0.545480
 H         1.501697        -2.311093        -0.166767
 H         1.149746        -1.675627        -1.828638
 H         3.810824        -1.666078        -1.805876
 H         4.179427        -0.765184         0.881677
 H         3.929697         1.861033        -0.224227
 H         4.908667         0.940909        -1.141006
 H         2.908467         0.616192        -2.821205
