19
Iteration:  3817
 C        -0.051219         0.088048         0.272985
 C         1.325367        -0.090402        -0.227181
 C         1.718013        -1.472168        -0.786175
 C         3.200074        -1.041014        -1.006516
 C         3.502683        -0.154300         0.255246
 C         4.030543         0.955666        -0.724614
 C         2.924111         0.385090        -1.716790
 O         1.569417         0.695195        -1.326276
 O         2.259577         0.195173         0.810412
 H        -0.303920        -0.787796         0.953954
 H        -0.069166         0.982673         0.963954
 H        -0.917582         0.301679        -0.469973
 H         1.748808        -2.209086         0.046978
 H         1.039937        -1.572599        -1.665493
 H         3.950264        -1.526746        -1.590518
 H         4.256674        -0.510428         1.027690
 H         3.820948         1.937666        -0.361609
 H         5.003204         0.756394        -1.142934
 H         3.017332         0.591718        -2.777334
