19
Iteration:  1709
 C        -0.115039         0.089188         0.332071
 C         1.319683        -0.113615        -0.194427
 C         1.691927        -1.507681        -0.738743
 C         3.129704        -1.047309        -1.092050
 C         3.565140        -0.278926         0.163351
 C         4.004321         0.922030        -0.751686
 C         2.932274         0.461105        -1.720604
 O         1.566334         0.788285        -1.285059
 O         2.372750         0.235103         0.811968
 H        -0.272259        -0.531283         1.216557
 H        -0.464930         1.111922         0.644538
 H        -0.895674        -0.229792        -0.432801
 H         1.783630        -2.208460         0.073378
 H         1.143188        -1.520766        -1.661369
 H         3.799079        -1.707301        -1.591224
 H         4.287280        -0.683165         0.895045
 H         3.683787         1.800825        -0.204604
 H         5.038699         0.846013        -1.074384
 H         3.144732         0.715265        -2.736633
