19
Iteration:  1525charge 0 multiplicity 1
 C        -0.029364         0.266427         0.290213
 C         1.372138        -0.179658        -0.215927
 C         1.703998        -1.523274        -0.731176
 C         3.107591        -1.047624        -1.123405
 C         3.610535        -0.256659         0.163007
 C         3.948190         1.015631        -0.700470
 C         2.878230         0.463581        -1.669978
 O         1.542762         0.804839        -1.232192
 O         2.320942         0.024948         0.767733
 H        -0.212054        -0.287912         1.151174
 H        -0.041706         1.299267         0.592456
 H        -0.712759         0.042981        -0.527477
 H         1.813988        -2.245536         0.105206
 H         1.151506        -2.030852        -1.554181
 H         3.847917        -1.645024        -1.618430
 H         4.290276        -0.610892         0.980933
 H         3.580128         1.940473        -0.285604
 H         4.869339         0.926742        -1.283563
 H         3.103084         0.731469        -2.740051
