19
Iteration:     3charge 0 multiplicity 1
 C        -0.047313         0.144879         0.402358
 C         1.340615        -0.114118        -0.196242
 C         1.706175        -1.463239        -0.794706
 C         3.095310        -1.007272        -1.148815
 C         3.584184        -0.229159         0.135323
 C         3.984016         0.964050        -0.732702
 C         2.901967         0.434842        -1.731752
 O         1.586309         0.818196        -1.241069
 O         2.329347         0.047252         0.810118
 H        -0.254412        -0.601039         1.277036
 H        -0.196329         1.153440         0.851214
 H        -0.832201        -0.040355        -0.337975
 H         1.649353        -2.331028        -0.053867
 H         1.075650        -1.763264        -1.649723
 H         3.859426        -1.663575        -1.572305
 H         4.263948        -0.621967         0.924470
 H         3.752688         1.999329        -0.343701
 H         4.963567         0.868368        -1.115599
 H         2.897549         0.655322        -2.751981
