19
Iteration:  4327charge 0 multiplicity 1
 C        -0.091037         0.211961         0.214695
 C         1.343410        -0.159460        -0.156868
 C         1.810628        -1.445885        -0.698953
 C         3.125437        -1.014484        -1.093791
 C         3.566818        -0.216317         0.205257
 C         3.926562         0.931478        -0.752395
 C         2.953486         0.380704        -1.722191
 O         1.614843         0.724381        -1.294474
 O         2.244986         0.185411         0.865942
 H        -0.469830        -0.117730         1.188479
 H        -0.367353         1.280600         0.152136
 H        -0.665598        -0.414824        -0.433514
 H         1.525323        -2.470497        -0.034609
 H         1.202268        -1.701206        -1.639427
 H         3.968230        -1.635248        -1.307843
 H         4.239281        -0.786087         0.868461
 H         3.747892         1.939458        -0.367171
 H         4.920810         0.802084        -1.153610
 H         3.126048         0.555110        -2.825986
