19
Iteration:  4702
 C        -0.093876         0.144457         0.316162
 C         1.281948        -0.102622        -0.247311
 C         1.766200        -1.449861        -0.701735
 C         3.188117        -1.023831        -1.031779
 C         3.546476        -0.183754         0.197515
 C         4.028798         0.969587        -0.664710
 C         2.970692         0.409488        -1.732451
 O         1.552128         0.654108        -1.405190
 O         2.231323         0.181456         0.815461
 H        -0.113408        -0.260306         1.333127
 H        -0.222185         1.227244         0.357838
 H        -0.796793        -0.317104        -0.387329
 H         1.524964        -2.187888         0.076448
 H         1.205060        -1.776813        -1.650583
 H         3.970158        -1.735977        -1.247968
 H         4.172096        -0.428839         1.047723
 H         4.036834         1.967429        -0.251817
 H         4.986787         0.803936        -1.176310
 H         3.043772         0.438971        -2.762981
