19
Iteration:   182charge 0 multiplicity 1
 C        -0.072717         0.010076         0.424224
 C         1.323789        -0.037186        -0.145783
 C         1.658894        -1.368531        -0.745868
 C         3.072968        -0.977164        -1.209322
 C         3.553501        -0.235460         0.162414
 C         3.981989         0.964676        -0.755987
 C         2.979583         0.440565        -1.818359
 O         1.611059         0.861876        -1.299589
 O         2.358529        -0.036975         0.891277
 H        -0.260975        -0.793403         1.135090
 H        -0.269458         1.081389         0.769485
 H        -0.954067        -0.048080        -0.377743
 H         1.802610        -2.057210         0.140549
 H         0.867685        -1.708886        -1.489874
 H         3.747884        -1.768351        -1.446714
 H         4.266866        -0.557565         0.924212
 H         3.920835         1.933269        -0.428843
 H         5.009981         0.904999        -1.146819
 H         2.989520         0.514397        -2.947261
