19
Iteration:  2600charge 0 multiplicity 1
 C        -0.134653         0.183031         0.311054
 C         1.222411        -0.110088        -0.258234
 C         1.786353        -1.563371        -0.710405
 C         3.175572        -1.068863        -1.014757
 C         3.576258        -0.137179         0.265932
 C         3.930287         0.963188        -0.815336
 C         2.990838         0.370436        -1.773579
 O         1.591092         0.820587        -1.351553
 O         2.323702         0.132683         0.893549
 H        -0.372608        -0.694954         0.955642
 H         0.108356         0.906734         1.070920
 H        -0.932567         0.275453        -0.468489
 H         1.560005        -2.209794         0.032948
 H         1.205274        -1.718677        -1.627353
 H         3.906749        -1.789928        -1.502731
 H         4.167531        -0.707187         1.017225
 H         3.702903         1.996408        -0.548465
 H         4.955162         0.866885        -1.201905
 H         3.105247         0.442431        -2.919367
