19
Iteration:  1759
 C        -0.104515         0.172675         0.331619
 C         1.325847        -0.145978        -0.227826
 C         1.715816        -1.513704        -0.878130
 C         3.153054        -1.039851        -1.030956
 C         3.639788        -0.166080         0.237322
 C         3.951846         0.961042        -0.783991
 C         2.854904         0.337287        -1.743169
 O         1.586240         0.825505        -1.250473
 O         2.337192         0.118998         0.900242
 H        -0.397941        -0.345580         1.327490
 H        -0.138116         1.277326         0.523460
 H        -0.867662        -0.019077        -0.364155
 H         1.582049        -2.364700        -0.157132
 H         1.323043        -1.567553        -1.926048
 H         3.903207        -1.766461        -1.494009
 H         4.375143        -0.630501         0.889595
 H         3.712855         1.988672        -0.362401
 H         4.932458         0.810715        -1.290070
 H         2.966955         0.502181        -2.859727
