19
Iteration:  2894
 C        -0.208834         0.123206         0.295641
 C         1.315951        -0.063816        -0.251503
 C         1.758201        -1.498325        -0.796073
 C         3.174013        -1.107662        -0.969537
 C         3.600477        -0.149382         0.237186
 C         3.947828         0.926316        -0.792873
 C         2.965520         0.415219        -1.769862
 O         1.593664         0.811335        -1.297318
 O         2.299725         0.140288         0.868501
 H        -0.057854        -0.230113         1.312986
 H        -0.338489         1.167916         0.389495
 H        -0.995117        -0.436286        -0.201913
 H         1.844957        -2.287367        -0.003150
 H         1.227331        -1.983696        -1.686814
 H         3.834432        -1.717574        -1.384310
 H         4.196332        -0.539673         1.037621
 H         3.981163         1.971765        -0.442509
 H         4.903559         0.669926        -1.254211
 H         3.076964         0.678506        -2.806038
