19
Iteration:  1768charge 0 multiplicity 1
 C        -0.073846         0.210628         0.385439
 C         1.272164        -0.150430        -0.192810
 C         1.704240        -1.496911        -0.905833
 C         3.114760        -1.030477        -1.056940
 C         3.584870        -0.182681         0.192076
 C         3.972450         1.046018        -0.751540
 C         2.912073         0.312128        -1.666543
 O         1.587090         0.738498        -1.271695
 O         2.342802         0.135367         0.849148
 H        -0.209056        -0.475369         1.242440
 H         0.034358         1.272417         0.534995
 H        -0.580898        -0.079145        -0.506380
 H         1.496345        -2.377388        -0.365301
 H         1.081039        -1.675395        -1.710741
 H         3.831809        -1.651709        -1.695839
 H         4.323625        -0.505327         0.947316
 H         3.834390         2.030647        -0.358098
 H         4.983025         0.995992        -1.034756
 H         3.090959         0.245584        -2.798183
