19
Iteration:    50
 C         0.015381         0.065266         0.328796
 C         1.382683        -0.065163        -0.094789
 C         1.653731        -1.403830        -0.848700
 C         3.079919        -0.998892        -1.175245
 C         3.577741        -0.171896         0.202850
 C         4.065442         0.887608        -0.742765
 C         2.868836         0.451474        -1.755067
 O         1.509996         0.764314        -1.234723
 O         2.324907         0.108166         0.856833
 H         0.035024        -0.439168         1.410488
 H        -0.365426         1.117077         0.463235
 H        -0.583063        -0.589854        -0.378749
 H         1.492309        -2.448011        -0.323438
 H         0.844908        -1.388503        -1.636083
 H         3.807851        -1.696568        -1.645661
 H         4.279374        -0.607516         0.956989
 H         4.081080         1.884530        -0.273197
 H         5.094216         0.573396        -1.110790
 H         2.836039         0.726121        -2.858414
