19
Iteration:  4639
 C        -0.135081         0.142386         0.262721
 C         1.315097        -0.068777        -0.221801
 C         1.713547        -1.500405        -0.624898
 C         3.145577        -1.001948        -1.079312
 C         3.550539        -0.167748         0.237914
 C         3.937078         0.991204        -0.729237
 C         2.985935         0.322015        -1.742633
 O         1.640653         0.754337        -1.425750
 O         2.302060         0.139410         0.904491
 H        -0.617157        -0.707142         0.681864
 H        -0.318932         1.019675         0.886359
 H        -0.765939         0.193239        -0.549870
 H         1.825076        -2.329825         0.057218
 H         1.336336        -2.008290        -1.660666
 H         3.815176        -1.741492        -1.408205
 H         4.387453        -0.383143         0.907895
 H         3.555876         1.916871        -0.359396
 H         4.942302         1.074913        -1.101326
 H         3.212284         0.329189        -2.810081
