19
Iteration:  1918
 C        -0.018374         0.208319         0.366118
 C         1.297258        -0.140422        -0.203926
 C         1.704388        -1.508663        -0.795808
 C         3.192428        -1.052060        -1.034369
 C         3.593135        -0.269006         0.206473
 C         3.929562         0.991127        -0.664551
 C         2.884276         0.429855        -1.714619
 O         1.517741         0.717188        -1.393208
 O         2.328734         0.169024         0.827188
 H        -0.124481        -0.191066         1.335085
 H        -0.065931         1.248433         0.454574
 H        -0.874136        -0.082105        -0.320919
 H         1.626716        -2.456917        -0.230583
 H         1.252130        -1.391880        -1.785720
 H         3.916143        -1.790768        -1.516328
 H         4.294764        -0.680972         0.957107
 H         3.993937         1.990955        -0.220039
 H         4.934155         0.976949        -1.229175
 H         3.112923         0.547060        -2.763721
