19
Iteration:  3313charge 0 multiplicity 1
 C        -0.072652         0.138076         0.226582
 C         1.288740        -0.069919        -0.179860
 C         1.736200        -1.529251        -0.738553
 C         3.129242        -0.968201        -1.018814
 C         3.598678        -0.218656         0.235309
 C         4.050191         0.988383        -0.769275
 C         2.896391         0.401464        -1.718739
 O         1.561201         0.725726        -1.317984
 O         2.289078         0.147496         0.833507
 H        -0.378182        -0.126205         1.238906
 H        -0.476372         1.143705         0.206720
 H        -0.735156        -0.415515        -0.415769
 H         1.632243        -2.367606         0.024338
 H         1.121086        -1.821628        -1.697568
 H         3.893640        -1.755979        -1.072815
 H         4.293434        -0.605455         1.007946
 H         3.912066         2.095593        -0.601345
 H         5.093381         0.716984        -1.088457
 H         3.123995         0.525991        -2.754330
