19
Iteration:  4984
 C        -0.084311         0.067283         0.170556
 C         1.315946        -0.083650        -0.188958
 C         1.618609        -1.410204        -0.662284
 C         3.093817        -1.042240        -1.038054
 C         3.615294        -0.205788         0.237545
 C         3.917286         1.077823        -0.733559
 C         3.038757         0.275661        -1.716208
 O         1.646179         0.673852        -1.329631
 O         2.299161         0.202636         0.846376
 H        -0.498920        -0.354815         1.061419
 H        -0.129090         1.130759         0.491449
 H        -0.715200        -0.049832        -0.665480
 H         1.676625        -2.271110         0.089711
 H         1.045354        -1.750358        -1.588740
 H         3.748381        -1.843606        -1.461343
 H         4.478370        -0.343818         0.894881
 H         3.577426         2.038773        -0.333491
 H         4.930582         1.134248        -1.159144
 H         3.185028         0.398624        -2.886963
