19
Iteration:  4202
 C        -0.086885         0.163843         0.229835
 C         1.289186        -0.087744        -0.210587
 C         1.758529        -1.530662        -0.673283
 C         3.183152        -1.034730        -1.083727
 C         3.534456        -0.193463         0.185321
 C         3.973824         0.985934        -0.746076
 C         2.906610         0.351471        -1.743521
 O         1.657632         0.752309        -1.297265
 O         2.264624         0.164149         0.867134
 H        -0.456869        -0.659021         0.867697
 H        -0.216731         1.124768         0.807861
 H        -0.797528         0.291575        -0.673833
 H         1.659632        -2.303691         0.178471
 H         1.198287        -1.936517        -1.555571
 H         3.987345        -1.766273        -1.184937
 H         4.202450        -0.692738         0.902636
 H         3.631667         1.973270        -0.375956
 H         4.958530         1.105387        -1.240657
 H         2.980138         0.606464        -2.803100
