19
Iteration:  3872
 C        -0.074604         0.162333         0.261058
 C         1.337161        -0.155135        -0.188248
 C         1.720266        -1.487984        -0.759946
 C         3.143790        -1.070054        -1.007071
 C         3.503150        -0.169832         0.221396
 C         3.903854         1.006318        -0.704965
 C         2.966438         0.398825        -1.799673
 O         1.614364         0.769593        -1.362469
 O         2.337879         0.139582         0.925274
 H        -0.247330        -0.651209         1.062313
 H        -0.301631         1.232574         0.460215
 H        -0.685042        -0.131719        -0.651656
 H         1.697353        -2.402896        -0.102709
 H         1.035458        -1.760316        -1.569315
 H         3.717951        -1.864028        -1.425650
 H         4.419689        -0.567968         0.710353
 H         3.657226         1.965120        -0.297056
 H         4.917188         1.069868        -1.082375
 H         3.160930         0.614041        -2.839012
