19
Iteration:  3253
 C        -0.127550         0.193339         0.333654
 C         1.307123        -0.136706        -0.235640
 C         1.742237        -1.517895        -0.748474
 C         3.208047        -1.007045        -1.060500
 C         3.624218        -0.140502         0.235499
 C         3.969161         0.948782        -0.727681
 C         2.951973         0.360376        -1.711530
 O         1.583306         0.732641        -1.405699
 O         2.214347         0.143862         0.848580
 H        -0.336257        -0.583123         1.099840
 H         0.033768         1.189666         0.859729
 H        -0.940215         0.265958        -0.427122
 H         1.704003        -2.241582         0.062545
 H         1.258335        -1.846394        -1.653969
 H         4.020511        -1.772573        -1.289992
 H         4.278594        -0.333453         1.108785
 H         3.899305         1.999746        -0.468664
 H         4.976665         0.678404        -1.033116
 H         2.843787         0.476214        -2.837406
