19
Iteration:   958
 C        -0.078110         0.086101         0.369918
 C         1.337273        -0.096034        -0.092151
 C         1.715267        -1.448128        -0.848127
 C         3.082140        -0.997178        -1.207188
 C         3.563779        -0.214663         0.163404
 C         3.936323         0.927032        -0.778840
 C         2.876893         0.459550        -1.737757
 O         1.596606         0.742656        -1.274051
 O         2.379994         0.136636         0.980292
 H        -0.370254        -0.561330         1.162083
 H        -0.022882         1.161882         0.505255
 H        -0.759166        -0.080899        -0.496729
 H         1.786374        -2.394649        -0.274155
 H         1.044255        -1.403409        -1.684544
 H         3.793131        -1.761006        -1.504147
 H         4.333965        -0.714036         0.693844
 H         4.010939         1.970728        -0.391371
 H         4.987308         0.673517        -1.356006
 H         2.973813         0.703209        -2.839291
