19
Iteration:  4750
 C        -0.184140         0.170509         0.259443
 C         1.288957        -0.130441        -0.206206
 C         1.720306        -1.454982        -0.697494
 C         3.188868        -0.987860        -1.007164
 C         3.546560        -0.130468         0.235199
 C         3.960662         0.947680        -0.746241
 C         2.975743         0.351549        -1.765215
 O         1.628137         0.690674        -1.346658
 O         2.305855         0.151703         0.868176
 H        -0.180479        -0.158606         1.291748
 H        -0.306492         1.242610         0.290403
 H        -0.791086        -0.406188        -0.405747
 H         1.725589        -2.440733        -0.169857
 H         1.358173        -1.786651        -1.792258
 H         3.808983        -1.846541        -1.339874
 H         4.331481        -0.478687         0.934975
 H         3.753342         2.047929        -0.719673
 H         5.029631         0.848041        -0.890165
 H         2.969285         0.571249        -2.872144
