19
Iteration:  2623
 C        -0.057375         0.111034         0.291718
 C         1.325541        -0.084018        -0.153035
 C         1.698682        -1.470981        -0.664634
 C         3.109716        -1.064541        -1.058869
 C         3.491877        -0.073892         0.155736
 C         3.995470         0.980082        -0.792871
 C         2.963114         0.408129        -1.786368
 O         1.692988         0.731028        -1.280805
 O         2.227549         0.100698         0.824929
 H        -0.443710        -0.743326         0.882493
 H        -0.042008         0.920956         0.985379
 H        -0.541508         0.006353        -0.705119
 H         1.611485        -2.079134         0.152037
 H         1.065367        -1.834751        -1.501224
 H         3.856835        -1.814040        -1.302934
 H         4.218507        -0.485533         0.915047
 H         3.845843         2.030000        -0.463324
 H         5.029556         0.819515        -1.098289
 H         2.953347         0.466892        -2.934525
