19
Iteration:  1548charge 0 multiplicity 1
 C        -0.153998         0.205675         0.427016
 C         1.344683        -0.157892        -0.143603
 C         1.735492        -1.462397        -0.853698
 C         3.109185        -1.015453        -1.182352
 C         3.542852        -0.237392         0.161002
 C         3.988033         1.003848        -0.668169
 C         2.950855         0.347843        -1.757427
 O         1.581635         0.738223        -1.357995
 O         2.362222         0.140270         0.926332
 H        -0.305499        -0.323321         1.282719
 H        -0.151393         1.253800         0.662212
 H        -0.735042        -0.021441        -0.396066
 H         1.672793        -2.419799        -0.257947
 H         1.174790        -1.576353        -1.818884
 H         3.901834        -1.663723        -1.461783
 H         4.168600        -0.780133         0.920894
 H         3.542616         1.921118        -0.298036
 H         4.998227         0.882559        -1.135485
 H         3.034849         0.720642        -2.846291
