19
Iteration:  2211charge 0 multiplicity 1
 C        -0.069306         0.176323         0.304588
 C         1.289675        -0.072115        -0.134976
 C         1.674715        -1.448525        -0.790583
 C         3.115384        -0.973560        -1.011426
 C         3.593403        -0.203286         0.206530
 C         3.970610         0.981757        -0.752384
 C         2.980383         0.416100        -1.775282
 O         1.583786         0.651011        -1.372426
 O         2.312508         0.109408         0.886476
 H        -0.376076        -0.693369         0.905257
 H        -0.070841         1.057379         0.945703
 H        -0.773752         0.215897        -0.593107
 H         1.483133        -2.351765        -0.207600
 H         1.075535        -1.686518        -1.657829
 H         3.948113        -1.695182        -1.202163
 H         4.278938        -0.698678         0.902402
 H         3.946845         1.989014        -0.480537
 H         4.993343         0.919359        -1.042383
 H         3.101543         0.518049        -2.815728
