19
Iteration:   522charge 0 multiplicity 1
 C        -0.053933         0.201273         0.415260
 C         1.298057        -0.145707        -0.062303
 C         1.712093        -1.549280        -0.849822
 C         3.034606        -1.006195        -1.240420
 C         3.568532        -0.283718         0.127330
 C         4.008542         1.027374        -0.720182
 C         2.918150         0.493904        -1.693871
 O         1.607563         0.698764        -1.260695
 O         2.358373         0.135181         0.847151
 H        -0.435382        -0.676136         1.019419
 H        -0.114681         1.185506         0.848213
 H        -0.540662         0.335187        -0.482787
 H         1.750761        -2.391159        -0.156037
 H         1.073448        -1.700970        -1.737105
 H         3.817707        -1.521001        -1.831459
 H         4.132239        -0.696884         0.902359
 H         3.733605         1.954531        -0.201313
 H         4.976810         0.862383        -1.232525
 H         2.927512         0.712474        -2.684256
