19
Iteration:   625
 C         0.101245         0.186608         0.379636
 C         1.307734        -0.158558        -0.257295
 C         1.740358        -1.556723        -0.729296
 C         3.074712        -1.068796        -1.087872
 C         3.608084        -0.185649         0.161368
 C         3.936475         0.950515        -0.722903
 C         2.865813         0.545631        -1.722108
 O         1.517755         0.923576        -1.241138
 O         2.310538        -0.066702         0.764217
 H        -0.129149        -0.257045         1.284023
 H         0.259727         1.246714         0.559352
 H        -0.729526        -0.163968        -0.334927
 H         1.523577        -2.145443         0.149036
 H         1.106036        -1.938944        -1.505249
 H         3.742661        -1.664149        -1.687530
 H         4.269281        -0.893230         0.716736
 H         3.890913         2.019496        -0.299354
 H         4.928179         0.897196        -1.123088
 H         2.876474         0.892745        -2.851151
