19
Iteration:  4927
 C        -0.105195         0.194403         0.305620
 C         1.280038        -0.096838        -0.231492
 C         1.709565        -1.596352        -0.714229
 C         3.093959        -1.054204        -1.046740
 C         3.515200        -0.145876         0.252925
 C         4.077850         1.015638        -0.698045
 C         2.987987         0.427349        -1.715967
 O         1.609592         0.676370        -1.413983
 O         2.255371         0.163538         0.819964
 H        -0.024198        -0.134092         1.330252
 H        -0.262361         1.244423         0.182001
 H        -0.916372        -0.338872        -0.188230
 H         1.840179        -2.421758         0.100026
 H         1.117904        -1.922956        -1.719600
 H         3.896614        -1.658265        -1.360152
 H         4.176449        -0.301521         1.107524
 H         4.048435         2.051206        -0.377949
 H         5.099656         0.723515        -1.034245
 H         3.073708         0.650510        -2.828576
