19
Iteration:  1651charge 0 multiplicity 1
 C        -0.079665         0.249979         0.358104
 C         1.364889        -0.150714        -0.172819
 C         1.768627        -1.465494        -0.777941
 C         3.159100        -1.039172        -1.130691
 C         3.543588        -0.216352         0.149628
 C         3.890519         1.020476        -0.739904
 C         2.912012         0.350919        -1.746654
 O         1.663957         0.803140        -1.259156
 O         2.251430         0.025878         0.802539
 H        -0.409422        -0.469695         1.168063
 H        -0.048009         1.213634         0.844100
 H        -0.892265         0.244133        -0.231312
 H         1.880215        -2.286041        -0.080510
 H         1.069325        -1.945771        -1.465562
 H         3.838224        -1.783433        -1.640984
 H         4.217831        -0.440577         0.948402
 H         3.671571         2.035057        -0.269888
 H         5.002539         1.031969        -0.894447
 H         2.923592         0.399971        -2.817472
