19
Iteration:  3176
 C        -0.086976         0.101181         0.290758
 C         1.340346        -0.145266        -0.221147
 C         1.739169        -1.496729        -0.762194
 C         3.134279        -1.021530        -0.954424
 C         3.574478        -0.138338         0.212538
 C         4.008104         0.968318        -0.770265
 C         2.925679         0.367061        -1.732644
 O         1.596035         0.765835        -1.316432
 O         2.268780         0.174694         0.822207
 H        -0.446462        -0.562893         1.124761
 H        -0.196838         1.216194         0.615004
 H        -0.697630        -0.054137        -0.616676
 H         1.545729        -2.272697         0.005492
 H         1.095748        -1.630493        -1.644701
 H         3.802539        -1.771126        -1.508066
 H         4.147897        -0.436487         1.150368
 H         3.918981         1.971533        -0.325728
 H         4.982792         0.744592        -1.190933
 H         2.997856         0.394391        -2.916653
