19
Iteration:  2169charge 0 multiplicity 1
 C        -0.087957         0.248609         0.266066
 C         1.282154        -0.101826        -0.263339
 C         1.811718        -1.537188        -0.642718
 C         3.172091        -1.006376        -1.015609
 C         3.526184        -0.259479         0.156657
 C         3.966585         0.973187        -0.744079
 C         2.927946         0.430691        -1.761120
 O         1.591362         0.820363        -1.327276
 O         2.303504         0.028707         0.846477
 H        -0.416443        -0.457768         1.027982
 H        -0.197746         1.220096         0.698094
 H        -0.974876         0.186516        -0.278848
 H         1.788251        -2.291746         0.258481
 H         1.255518        -2.032696        -1.518443
 H         3.905209        -1.631898        -1.525209
 H         4.166237        -0.782954         0.886201
 H         3.667581         1.964097        -0.302950
 H         4.978961         0.869965        -1.165494
 H         2.934158         0.661445        -2.804504
