19
Iteration:   562
 C        -0.005530         0.060515         0.391450
 C         1.341221        -0.061838        -0.269108
 C         1.632707        -1.466670        -0.810003
 C         3.081032        -1.023596        -1.096828
 C         3.577198        -0.201596         0.176105
 C         4.013207         0.946347        -0.816128
 C         2.860204         0.410249        -1.658801
 O         1.602442         0.912928        -1.210879
 O         2.346056         0.032285         0.851888
 H        -0.062935        -0.739588         1.221200
 H        -0.252142         1.056114         0.827878
 H        -0.754843        -0.199781        -0.412739
 H         1.429427        -2.270183        -0.078883
 H         1.048804        -1.664447        -1.776670
 H         3.717518        -1.672494        -1.679880
 H         4.396916        -0.662502         0.864634
 H         3.948931         1.949845        -0.484065
 H         5.008348         0.805927        -1.384370
 H         2.951399         0.579489        -2.811871
