19
Iteration:  4114
 C        -0.112414         0.143507         0.231078
 C         1.311627        -0.125507        -0.229438
 C         1.729916        -1.424761        -0.667044
 C         3.155440        -1.002954        -1.035061
 C         3.569383        -0.190448         0.174121
 C         3.998312         0.947458        -0.718485
 C         2.914500         0.409407        -1.712709
 O         1.583315         0.735822        -1.334141
 O         2.319446         0.130680         0.859750
 H        -0.231108        -0.261875         1.248992
 H        -0.319587         1.254623         0.274728
 H        -0.704506        -0.489827        -0.501445
 H         1.489714        -2.339397        -0.133916
 H         1.378494        -1.796232        -1.568407
 H         3.870515        -1.855106        -1.341040
 H         4.175637        -0.655005         0.963058
 H         3.796314         1.970092        -0.322990
 H         4.978922         0.950757        -1.201189
 H         2.927946         0.542085        -2.799521
