19
Iteration:  2922charge 0 multiplicity 1
 C        -0.084707         0.100573         0.291464
 C         1.355405        -0.122976        -0.194418
 C         1.705208        -1.454085        -0.715182
 C         3.092937        -1.019663        -0.999167
 C         3.543477        -0.182625         0.153867
 C         4.017420         0.984453        -0.724568
 C         2.977732         0.426949        -1.742627
 O         1.624616         0.729168        -1.332228
 O         2.202818         0.148873         0.804704
 H         0.076661        -0.199451         1.348796
 H        -0.088169         1.203684         0.343284
 H        -0.935535        -0.469831        -0.183327
 H         1.818868        -2.277359         0.018265
 H         1.134681        -1.840019        -1.522103
 H         3.850348        -1.727559        -1.624328
 H         4.071698        -0.733891         0.960076
 H         3.922826         2.015240        -0.350911
 H         5.095709         0.845459        -0.999189
 H         3.125856         0.607576        -2.849509
