19
Iteration:  1804charge 0 multiplicity 1
 C        -0.022050         0.189917         0.377314
 C         1.264947        -0.068477        -0.279829
 C         1.792425        -1.508830        -0.722276
 C         3.142886        -1.055905        -1.082013
 C         3.549316        -0.278433         0.178323
 C         3.915798         0.952030        -0.674121
 C         2.938069         0.420970        -1.703961
 O         1.552934         0.844994        -1.451998
 O         2.312396         0.071185         0.860076
 H        -0.277879        -0.548377         1.170918
 H        -0.081706         1.135514         0.956867
 H        -0.881816         0.240535        -0.160641
 H         2.004735        -2.000112         0.273748
 H         1.270204        -2.126442        -1.513076
 H         3.865592        -1.544066        -1.712042
 H         4.250844        -0.572850         0.949146
 H         3.692768         1.986481        -0.223750
 H         4.963490         0.809036        -1.081162
 H         2.975962         0.408171        -2.783538
