19
Iteration:   159charge 0 multiplicity 1
 C        -0.028417         0.053107         0.389977
 C         1.331117        -0.120934        -0.205833
 C         1.714021        -1.550700        -0.758884
 C         3.062959        -0.955958        -1.183297
 C         3.597795        -0.257338         0.146467
 C         4.026851         0.861734        -0.753776
 C         2.860609         0.546394        -1.710775
 O         1.583720         0.831993        -1.240169
 O         2.312786         0.178606         0.848264
 H        -0.349835        -0.883274         0.881616
 H        -0.171641         0.974101         1.029949
 H        -0.845617         0.187496        -0.433781
 H         1.710701        -2.267339         0.127169
 H         1.111842        -1.845573        -1.657285
 H         3.776277        -1.491224        -1.796959
 H         4.243811        -0.740914         0.909520
 H         4.124410         1.840049        -0.386611
 H         5.000562         0.618524        -1.182868
 H         2.882929         0.790579        -2.768765
