19
Iteration:  3306charge 0 multiplicity 1
 C        -0.141441         0.100476         0.239437
 C         1.325227        -0.067060        -0.156115
 C         1.735588        -1.436891        -0.711005
 C         3.143291        -0.975247        -1.000014
 C         3.588617        -0.205616         0.233288
 C         4.002323         0.954318        -0.755495
 C         2.963244         0.328162        -1.701583
 O         1.549623         0.759573        -1.364029
 O         2.333851         0.143709         0.831827
 H        -0.451962        -0.234224         1.245819
 H        -0.345842         1.213858         0.131900
 H        -0.825802        -0.398170        -0.451308
 H         1.662886        -2.314703        -0.092933
 H         1.391185        -1.745150        -1.663380
 H         3.898605        -1.753958        -1.449771
 H         4.136352        -0.707687         1.056132
 H         3.868235         2.034484        -0.526571
 H         5.025840         0.813866        -1.153338
 H         2.712159         0.525796        -2.824328
