19
Iteration:  3863charge 0 multiplicity 1
 C        -0.045611         0.115174         0.239295
 C         1.295594        -0.131592        -0.253240
 C         1.711515        -1.471511        -0.693384
 C         3.100231        -1.028353        -1.084926
 C         3.584391        -0.136957         0.179605
 C         3.939615         1.015634        -0.710333
 C         3.029066         0.405176        -1.781576
 O         1.591206         0.710094        -1.299653
 O         2.286113         0.120223         0.901977
 H        -0.366755        -0.541480         1.086071
 H        -0.184710         1.143119         0.594148
 H        -0.761857         0.004141        -0.502125
 H         1.585919        -2.170956         0.198017
 H         1.229062        -1.603218        -1.652536
 H         3.790982        -1.839686        -1.328195
 H         4.227097        -0.663701         0.931908
 H         3.670097         2.000598        -0.397797
 H         4.962536         0.853773        -0.914374
 H         3.041397         0.582380        -2.862633
