19
Iteration:  2528charge 0 multiplicity 1
 C        -0.060493         0.139488         0.300153
 C         1.252113        -0.055743        -0.262502
 C         1.712628        -1.516418        -0.699783
 C         3.124515        -1.042223        -1.045658
 C         3.608297        -0.137234         0.255392
 C         3.948298         0.981836        -0.800103
 C         2.953185         0.308443        -1.686168
 O         1.624797         0.823211        -1.314970
 O         2.302972         0.057328         0.818342
 H        -0.293177        -0.256903         1.271062
 H        -0.165255         1.228223         0.373251
 H        -0.747252        -0.236770        -0.469425
 H         1.665819        -2.328590         0.100584
 H         1.142170        -1.618649        -1.617559
 H         3.866152        -1.595254        -1.533099
 H         4.175368        -0.374213         1.162013
 H         3.786232         2.081940        -0.631554
 H         4.969701         0.773115        -1.169811
 H         2.901913         0.360453        -2.739059
