19
Iteration:  4499
 C        -0.054898         0.121359         0.274627
 C         1.341091        -0.076561        -0.239017
 C         1.725681        -1.552132        -0.722058
 C         3.101817        -1.049543        -1.006214
 C         3.510698        -0.162864         0.195984
 C         3.992901         0.967483        -0.719372
 C         3.040611         0.439522        -1.717452
 O         1.598446         0.737975        -1.367465
 O         2.217321         0.177124         0.804008
 H        -0.025909        -0.346905         1.312747
 H        -0.127691         1.258166         0.484408
 H        -0.958135        -0.278304        -0.219536
 H         1.726742        -2.180399         0.079391
 H         1.185010        -1.967436        -1.538643
 H         3.886628        -1.767674        -1.074475
 H         4.157511        -0.604540         0.984738
 H         3.671602         1.984924        -0.447423
 H         5.076020         0.774332        -0.983793
 H         3.065422         0.503994        -2.851773
