19
Iteration:  1547
 C        -0.155394         0.210049         0.426394
 C         1.339321        -0.153133        -0.145053
 C         1.740729        -1.475519        -0.849820
 C         3.110253        -1.013454        -1.180349
 C         3.548025        -0.238917         0.151462
 C         3.981859         1.000115        -0.666234
 C         2.947764         0.352176        -1.759337
 O         1.586823         0.735626        -1.354834
 O         2.362861         0.142465         0.927484
 H        -0.293999        -0.332966         1.297461
 H        -0.130029         1.270432         0.646802
 H        -0.753082        -0.019878        -0.451027
 H         1.664605        -2.412768        -0.246702
 H         1.181879        -1.561991        -1.823099
 H         3.900608        -1.662486        -1.479935
 H         4.167127        -0.780998         0.911877
 H         3.556378         1.913025        -0.270327
 H         4.984285         0.893276        -1.100172
 H         2.985674         0.728796        -2.833993
