19
Iteration:  2228
 C        -0.142603         0.115297         0.411643
 C         1.326030        -0.076381        -0.261097
 C         1.731269        -1.476299        -0.754562
 C         3.168506        -1.092094        -1.004577
 C         3.533572        -0.136949         0.244964
 C         3.957867         0.938052        -0.771510
 C         2.935051         0.306750        -1.738479
 O         1.644567         0.903625        -1.405397
 O         2.286298         0.082690         0.852207
 H        -0.326381        -0.737310         1.079366
 H        -0.181239         1.068585         0.986401
 H        -0.772547         0.098879        -0.501391
 H         1.634117        -2.238403         0.050976
 H         1.249181        -1.760955        -1.718383
 H         3.759542        -1.784141        -1.598969
 H         4.295585        -0.389388         0.992506
 H         3.744687         2.024192        -0.440921
 H         5.057131         0.830865        -1.119856
 H         3.136225         0.430916        -2.860647
