19
Iteration:  3593charge 0 multiplicity 1
 C        -0.029760         0.131445         0.285750
 C         1.239440        -0.082086        -0.232285
 C         1.696647        -1.491557        -0.803370
 C         3.144194        -1.052244        -1.033053
 C         3.576640        -0.114399         0.239146
 C         3.987694         0.970458        -0.681183
 C         2.926944         0.346619        -1.661271
 O         1.571098         0.674791        -1.321546
 O         2.306587         0.194843         0.785252
 H        -0.284046        -0.748404         0.943972
 H        -0.027737         1.121632         0.810963
 H        -0.689954         0.178077        -0.582504
 H         1.620022        -2.306614        -0.122111
 H         1.257180        -1.988823        -1.627015
 H         3.822477        -1.724172        -1.624001
 H         4.163061        -0.223219         1.170275
 H         3.922191         2.059902        -0.390413
 H         5.053912         0.946797        -1.059649
 H         3.220759         0.532755        -2.767923
