19
Iteration:  2727charge 0 multiplicity 1
 C        -0.100079         0.164444         0.296661
 C         1.228191        -0.175814        -0.133450
 C         1.666628        -1.551062        -0.830211
 C         3.143350        -1.071152        -0.988797
 C         3.631035        -0.153716         0.230505
 C         3.988275         0.990815        -0.726368
 C         2.909499         0.423699        -1.711225
 O         1.598946         0.767565        -1.382355
 O         2.346191         0.178227         0.860329
 H        -0.019548        -0.236740         1.303108
 H        -0.070895         1.259144         0.115248
 H        -0.825323        -0.251806        -0.395674
 H         1.576799        -2.514988        -0.087153
 H         1.122980        -1.711689        -1.798155
 H         3.943222        -1.794166        -1.461338
 H         4.369120        -0.569922         0.919973
 H         3.775019         2.014465        -0.403513
 H         5.030772         0.904966        -1.167591
 H         2.977537         0.505257        -2.778410
