19
Iteration:  2506charge 0 multiplicity 1
 C        -0.084206         0.158447         0.284643
 C         1.275726        -0.138566        -0.132528
 C         1.673878        -1.478113        -0.820904
 C         3.140335        -1.023221        -1.044188
 C         3.529404        -0.170656         0.166302
 C         3.992518         0.963851        -0.759711
 C         2.963306         0.373904        -1.801896
 O         1.647298         0.681948        -1.266807
 O         2.318487         0.219210         0.891738
 H        -0.350190        -0.157603         1.284605
 H        -0.515429         1.126028         0.448586
 H        -0.711484        -0.445872        -0.405761
 H         1.708042        -2.317023        -0.078276
 H         1.304414        -1.350252        -1.807810
 H         3.879506        -1.770175        -1.126613
 H         4.171269        -0.622196         0.947638
 H         3.901109         2.031551        -0.386734
 H         4.964473         0.645704        -1.178066
 H         2.913505         0.476578        -2.859584
