19
Iteration:  3902
 C        -0.093438         0.202085         0.277830
 C         1.262482        -0.173776        -0.292144
 C         1.752885        -1.461949        -0.741542
 C         3.201675        -1.027220        -1.001410
 C         3.562098        -0.182051         0.206314
 C         3.990419         0.996956        -0.702469
 C         2.958214         0.378214        -1.736404
 O         1.562881         0.738993        -1.280129
 O         2.265504         0.113393         0.811539
 H        -0.215909        -0.202733         1.337863
 H        -0.137455         1.286172         0.502862
 H        -0.874868        -0.348784        -0.392544
 H         1.696196        -2.320153        -0.099068
 H         1.204329        -1.843547        -1.628847
 H         3.756962        -1.799663        -1.522374
 H         4.352372        -0.531556         0.913932
 H         3.805760         2.024760        -0.300248
 H         5.078025         0.981205        -1.101944
 H         3.072325         0.589746        -2.798713
