19
Iteration:  1087charge 0 multiplicity 1
 C        -0.089054         0.105957         0.326797
 C         1.351290        -0.071841        -0.179669
 C         1.690073        -1.469245        -0.741416
 C         3.061761        -1.013262        -1.163888
 C         3.623462        -0.181103         0.203214
 C         3.957588         0.919244        -0.766158
 C         2.910221         0.452232        -1.720960
 O         1.541750         0.787763        -1.289695
 O         2.393793         0.074267         0.887563
 H        -0.316755        -0.755084         0.984917
 H        -0.230089         0.923950         1.072820
 H        -0.700414         0.165657        -0.621880
 H         1.611989        -2.275290         0.015575
 H         1.080693        -1.784185        -1.587753
 H         3.777539        -1.615095        -1.751619
 H         4.401101        -0.619703         0.815798
 H         3.981929         1.877267        -0.452439
 H         4.832445         0.832280        -1.285605
 H         3.135467         0.816714        -2.711130
