19
Iteration:  1132charge 0 multiplicity 1
 C        -0.020270         0.184428         0.466839
 C         1.358685        -0.086683        -0.250548
 C         1.747934        -1.532046        -0.829395
 C         3.122413        -1.021811        -1.218138
 C         3.490482        -0.240751         0.197288
 C         3.896556         0.954370        -0.696906
 C         2.878012         0.409247        -1.794478
 O         1.649020         0.809969        -1.295224
 O         2.290113         0.104200         0.899192
 H         0.004348        -0.598597         1.195913
 H        -0.006619         1.092012         1.045760
 H        -0.959779         0.057718        -0.245212
 H         2.003623        -2.369254        -0.189715
 H         1.062540        -1.860555        -1.631508
 H         3.929772        -1.687362        -1.617215
 H         4.215214        -0.376163         0.977674
 H         3.823909         1.919725        -0.426530
 H         4.895493         0.796351        -0.855748
 H         2.924094         0.661437        -2.879432
