19
Iteration:  1475
 C        -0.069993         0.030940         0.419350
 C         1.363368        -0.141326        -0.199663
 C         1.652241        -1.463787        -0.864843
 C         3.092132        -1.082226        -1.091485
 C         3.544864        -0.211329         0.184341
 C         3.999352         0.998482        -0.736082
 C         2.927132         0.366721        -1.705475
 O         1.614069         0.822170        -1.250524
 O         2.330060         0.223161         0.812830
 H        -0.464601        -0.771118         1.208567
 H        -0.039145         1.099671         0.877066
 H        -0.700525         0.189685        -0.471070
 H         1.507938        -2.435719        -0.334460
 H         1.135480        -1.372320        -1.816455
 H         3.792136        -1.705918        -1.678389
 H         4.280927        -0.607285         0.916631
 H         3.786534         2.038242        -0.370003
 H         5.075597         0.791230        -1.039958
 H         3.018502         0.343997        -2.823382
