19
Iteration:  2147
 C        -0.039197         0.148313         0.318948
 C         1.363051        -0.113709        -0.149762
 C         1.575243        -1.458001        -0.850437
 C         3.116588        -1.022715        -1.075145
 C         3.587082        -0.120227         0.265258
 C         3.961660         0.987975        -0.735896
 C         3.000893         0.361769        -1.731503
 O         1.619234         0.726488        -1.348745
 O         2.293849         0.097904         0.867140
 H        -0.279124        -0.491075         1.174765
 H        -0.252494         1.185216         0.545746
 H        -0.832082        -0.143614        -0.376526
 H         1.793559        -2.342808        -0.127799
 H         0.814321        -1.720072        -1.674846
 H         3.759367        -1.793755        -1.517056
 H         4.366867        -0.356542         1.005677
 H         3.767880         2.057342        -0.483763
 H         4.984325         0.681401        -1.034187
 H         3.093090         0.594264        -2.767313
