19
Iteration:   820charge 0 multiplicity 1
 C        -0.060967         0.068763         0.420862
 C         1.338781        -0.060260        -0.165902
 C         1.637054        -1.445518        -0.834349
 C         3.120529        -1.048187        -1.140858
 C         3.564449        -0.260001         0.120637
 C         3.998743         0.960762        -0.762299
 C         2.923938         0.439959        -1.722480
 O         1.555485         0.829350        -1.221753
 O         2.386094         0.121713         0.830233
 H        -0.078262        -0.556506         1.324557
 H        -0.432662         1.059774         0.621603
 H        -0.877311        -0.332746        -0.316643
 H         1.657257        -2.262770        -0.116454
 H         1.173622        -1.730278        -1.788252
 H         3.775591        -1.798270        -1.610399
 H         4.246904        -0.769979         0.836855
 H         3.803979         1.991396        -0.305310
 H         4.994478         0.999699        -1.051790
 H         3.009711         0.583247        -2.779779
