19
Iteration:  1143charge 0 multiplicity 1
 C         0.066971         0.135064         0.435879
 C         1.297513        -0.057078        -0.223314
 C         1.725192        -1.465791        -0.777236
 C         3.081484        -1.007690        -1.198393
 C         3.519622        -0.181021         0.195081
 C         3.963954         1.030327        -0.659945
 C         2.928901         0.407586        -1.804874
 O         1.581623         0.765627        -1.311649
 O         2.289331        -0.002334         0.862091
 H        -0.131435        -0.477983         1.274480
 H         0.024565         1.189838         0.688611
 H        -0.831876         0.067164        -0.349817
 H         1.650816        -2.048137         0.160891
 H         1.125069        -1.951328        -1.564118
 H         3.839114        -1.644549        -1.728718
 H         4.283912        -0.706018         0.777306
 H         3.877684         1.936535        -0.201780
 H         4.901684         0.799019        -1.021135
 H         2.926613         0.546301        -2.914772
