19
Iteration:  2235
 C        -0.102871         0.094641         0.352817
 C         1.246567        -0.059196        -0.241295
 C         1.760812        -1.448884        -0.711587
 C         3.167271        -1.104525        -1.047011
 C         3.554250        -0.153687         0.243969
 C         3.946699         0.947979        -0.775978
 C         2.947577         0.309974        -1.729313
 O         1.675512         0.895245        -1.325324
 O         2.244512         0.113043         0.776367
 H        -0.134309        -0.724276         1.091102
 H         0.048109         1.006597         0.952801
 H        -0.885876         0.017956        -0.333956
 H         1.590540        -2.331887        -0.037255
 H         1.074980        -1.876084        -1.518660
 H         3.735763        -1.791303        -1.677424
 H         4.230049        -0.459849         1.069588
 H         3.872151         2.044371        -0.649822
 H         5.008197         0.897766        -0.878651
 H         3.102313         0.316727        -2.801372
