19
Iteration:   433charge 0 multiplicity 1
 C        -0.114865         0.058725         0.345226
 C         1.307920        -0.004040        -0.170050
 C         1.659341        -1.379099        -0.801381
 C         3.156443        -1.010334        -1.075102
 C         3.710991        -0.310796         0.174430
 C         4.015599         0.924071        -0.759246
 C         2.823478         0.422647        -1.631911
 O         1.467408         0.821780        -1.281691
 O         2.455365         0.051057         0.825581
 H        -0.309673        -0.567098         1.271905
 H        -0.558295         1.053184         0.408542
 H        -0.820412        -0.249425        -0.397131
 H         1.606405        -2.230175        -0.100590
 H         1.218133        -1.289877        -1.837125
 H         3.781241        -1.435448        -1.879073
 H         4.496740        -0.652964         0.795376
 H         3.821069         1.841461        -0.242863
 H         4.910287         0.921549        -1.540042
 H         2.992795         0.490029        -2.621628
