19
Iteration:   981
 C        -0.046183         0.139975         0.403338
 C         1.319077        -0.084013        -0.232099
 C         1.696498        -1.499474        -0.701605
 C         3.118728        -1.041069        -1.085281
 C         3.629200        -0.244714         0.113775
 C         3.980228         0.972687        -0.756707
 C         2.877946         0.508791        -1.733382
 O         1.563386         0.854449        -1.256462
 O         2.313461        -0.003115         0.784991
 H        -0.136846        -0.433358         1.253056
 H        -0.243273         1.192251         0.484011
 H        -0.824191        -0.312897        -0.299577
 H         1.705543        -2.184224         0.140560
 H         1.146608        -1.798418        -1.603814
 H         3.757884        -1.673748        -1.728990
 H         4.372107        -0.583365         0.811545
 H         3.804125         1.941303        -0.164560
 H         5.130888         0.934125        -1.045505
 H         2.956789         0.533077        -2.864619
