19
Iteration:   581charge 0 multiplicity 1
 C        -0.106105         0.058375         0.498908
 C         1.335961        -0.143857        -0.039232
 C         1.648745        -1.391174        -0.907973
 C         3.068471        -0.999497        -1.183250
 C         3.544100        -0.252240         0.111599
 C         3.989456         0.933123        -0.759548
 C         2.981580         0.422515        -1.819600
 O         1.648326         0.764589        -1.247294
 O         2.367134         0.175029         0.877646
 H        -0.472190        -0.440920         1.325199
 H        -0.271813         1.107644         0.794655
 H        -0.861657        -0.326919        -0.296783
 H         1.541831        -2.416557        -0.570355
 H         1.119788        -1.347816        -1.833651
 H         3.744603        -1.784838        -1.525939
 H         4.136011        -0.581808         1.006467
 H         3.910763         1.946055        -0.341017
 H         5.009535         0.952279        -0.930736
 H         2.962446         0.595020        -2.985373
