19
Iteration:   397charge 0 multiplicity 1
 C         0.024189         0.140120         0.424531
 C         1.362672        -0.139571        -0.190439
 C         1.711552        -1.520628        -0.806171
 C         3.087826        -0.978516        -1.214812
 C         3.477699        -0.216538         0.107195
 C         3.935368         0.960576        -0.805719
 C         2.935371         0.442932        -1.726380
 O         1.692473         0.827696        -1.160701
 O         2.224830         0.063221         0.850924
 H        -0.041202        -0.350261         1.317531
 H        -0.002204         1.187723         0.684838
 H        -0.736811        -0.308743        -0.270658
 H         1.835538        -2.303516        -0.043168
 H         0.947870        -1.996178        -1.376497
 H         3.807344        -1.376340        -1.884394
 H         4.103324        -0.676826         0.942662
 H         3.705473         2.014793        -0.517157
 H         5.026348         0.900991        -1.023514
 H         2.868169         0.655138        -2.794592
