19
Iteration:  1863
 C        -0.093319         0.115374         0.310316
 C         1.360651        -0.079338        -0.226976
 C         1.666711        -1.422458        -0.746153
 C         3.143236        -1.001586        -1.012850
 C         3.565986        -0.191825         0.242711
 C         3.991541         0.936926        -0.833496
 C         2.904371         0.348053        -1.770850
 O         1.605450         0.845413        -1.224126
 O         2.309574         0.067077         0.830485
 H        -0.309403        -0.683301         0.977724
 H        -0.304091         1.081737         0.686768
 H        -0.661158        -0.105193        -0.672079
 H         1.699713        -2.251473        -0.004825
 H         1.205565        -1.845606        -1.677223
 H         3.827579        -1.670035        -1.571372
 H         4.308339        -0.346336         1.041952
 H         3.771513         1.954391        -0.486453
 H         5.086712         0.791701        -1.156021
 H         2.871637         0.278598        -2.851550
