19
Iteration:  1864
 C        -0.088099         0.110640         0.307607
 C         1.355246        -0.077608        -0.228242
 C         1.670356        -1.427494        -0.744100
 C         3.142430        -1.004387        -1.005254
 C         3.567046        -0.192112         0.231597
 C         3.991666         0.937319        -0.832477
 C         2.898502         0.353783        -1.761632
 O         1.608093         0.851426        -1.227251
 O         2.305868         0.062248         0.824980
 H        -0.299448        -0.697399         1.026426
 H        -0.273917         1.102653         0.688214
 H        -0.688673        -0.097993        -0.692062
 H         1.685495        -2.205853         0.032407
 H         1.222352        -1.840915        -1.654066
 H         3.834963        -1.702618        -1.568887
 H         4.308019        -0.358573         1.037317
 H         3.792462         1.949033        -0.489977
 H         5.060620         0.812442        -1.144659
 H         2.895586         0.284546        -2.867972
