19
Iteration:   358charge 0 multiplicity 1
 C        -0.032052         0.195717         0.450263
 C         1.325888        -0.127159        -0.062229
 C         1.645863        -1.434886        -0.854078
 C         3.104940        -1.020714        -1.159390
 C         3.677752        -0.240047         0.151075
 C         3.988513         1.071523        -0.697206
 C         2.853518         0.456604        -1.681617
 O         1.535871         0.675245        -1.401428
 O         2.375276         0.021132         0.849139
 H        -0.426496        -0.617614         1.222387
 H        -0.132855         1.199717         0.966797
 H        -0.719824         0.210221        -0.422285
 H         1.401408        -2.251283        -0.109101
 H         1.023721        -1.551926        -1.840558
 H         3.832890        -1.655605        -1.741988
 H         4.425211        -0.643506         0.787938
 H         3.780179         2.042199        -0.337883
 H         5.013272         0.915226        -1.141929
 H         3.059633         0.653227        -2.772111
