19
Iteration:  3946
 C        -0.171746         0.084796         0.298399
 C         1.353221        -0.072324        -0.244124
 C         1.772157        -1.418787        -0.796732
 C         3.125289        -1.073631        -1.011416
 C         3.568270        -0.193571         0.229695
 C         3.972748         0.949062        -0.698768
 C         2.948805         0.417266        -1.713760
 O         1.584638         0.750837        -1.317896
 O         2.314685         0.151821         0.789920
 H        -0.135717        -0.427188         1.299812
 H        -0.139105         1.172606         0.399040
 H        -1.002051        -0.266402        -0.389124
 H         1.528771        -2.108847        -0.029447
 H         1.208935        -1.846909        -1.621893
 H         3.925381        -1.736744        -1.203797
 H         4.266657        -0.648843         0.940908
 H         3.709970         1.963411        -0.339299
 H         5.069768         1.006223        -1.052229
 H         2.960715         0.400227        -2.783354
