19
Iteration:  4486
 C        -0.064302         0.131779         0.332042
 C         1.284384        -0.080366        -0.306320
 C         1.732288        -1.439301        -0.728294
 C         3.193378        -1.063780        -0.989058
 C         3.549260        -0.184540         0.272894
 C         3.899395         0.970576        -0.690891
 C         2.915336         0.270920        -1.715261
 O         1.658201         0.756716        -1.386568
 O         2.269998         0.193184         0.792840
 H        -0.079694        -0.535984         1.218786
 H        -0.299303         1.168961         0.576608
 H        -0.750775        -0.175687        -0.461173
 H         1.626033        -2.141833         0.080240
 H         1.237700        -1.747866        -1.743890
 H         3.817734        -1.699125        -1.666100
 H         4.227270        -0.422474         1.107940
 H         3.778830         1.951016        -0.248762
 H         4.917677         0.945878        -1.138236
 H         3.162583         0.457676        -2.793539
