19
Iteration:  3062
 C        -0.094446         0.195204         0.268319
 C         1.284298        -0.088579        -0.297255
 C         1.791558        -1.535406        -0.718271
 C         3.146984        -1.050122        -0.983254
 C         3.555134        -0.100111         0.215667
 C         3.946198         0.953778        -0.751394
 C         2.942103         0.381443        -1.734822
 O         1.607709         0.768248        -1.300975
 O         2.285218         0.084853         0.827574
 H        -0.256566        -0.451718         1.124289
 H        -0.273517         1.131798         0.793591
 H        -1.036355         0.055817        -0.306213
 H         1.557197        -2.205730         0.129364
 H         1.168759        -1.876196        -1.558215
 H         3.904402        -1.879542        -1.302706
 H         4.399443        -0.640928         0.735809
 H         3.935962         2.002268        -0.446286
 H         4.950491         0.688901        -1.157387
 H         3.108276         0.714069        -2.891696
