19
Iteration:  1054charge 0 multiplicity 1
 C        -0.086080         0.138678         0.373950
 C         1.307440        -0.119343        -0.224008
 C         1.670708        -1.567321        -0.728882
 C         3.040887        -1.007992        -1.173541
 C         3.598206        -0.158897         0.125156
 C         4.039904         0.998619        -0.741958
 C         2.902433         0.384364        -1.748123
 O         1.629829         0.826726        -1.181763
 O         2.341064         0.073283         0.816554
 H        -0.330912        -0.715082         1.062935
 H        -0.164076         1.197745         0.743899
 H        -0.903162         0.011408        -0.384765
 H         1.748108        -2.319069         0.082794
 H         1.167920        -1.863335        -1.631705
 H         3.826334        -1.548117        -1.704367
 H         4.301311        -0.507735         0.892267
 H         3.764477         1.910517        -0.388385
 H         5.019631         0.996739        -1.101782
 H         2.962578         0.680875        -2.780699
