19
Iteration:  2948
 C        -0.144640         0.188885         0.286523
 C         1.355179        -0.064517        -0.207862
 C         1.739917        -1.508990        -0.783211
 C         3.151415        -1.068401        -1.022619
 C         3.628550        -0.170224         0.250149
 C         3.918955         0.980861        -0.675523
 C         2.912861         0.313498        -1.707077
 O         1.531715         0.758506        -1.386095
 O         2.380793         0.133547         0.839756
 H        -0.317046        -0.371579         1.209930
 H        -0.256519         1.255655         0.437918
 H        -0.841709        -0.159207        -0.506936
 H         1.597733        -2.383519        -0.035983
 H         1.153622        -1.741733        -1.768932
 H         3.811281        -1.419741        -1.705119
 H         4.297291        -0.610002         0.966071
 H         3.589951         2.018021        -0.406028
 H         5.014357         0.983085        -0.844944
 H         3.212588         0.363439        -2.752438
