19
Iteration:   884
 C        -0.027456         0.167519         0.446888
 C         1.291809        -0.224183        -0.127745
 C         1.661914        -1.506300        -0.877456
 C         3.078086        -0.991846        -1.105486
 C         3.621067        -0.252185         0.120490
 C         3.952716         1.043960        -0.707796
 C         2.897147         0.428028        -1.654383
 O         1.569241         0.761944        -1.300993
 O         2.400784         0.130247         0.799746
 H        -0.507499        -0.586969         1.043818
 H         0.195159         1.056217         1.014337
 H        -0.658152         0.322566        -0.513251
 H         1.544212        -2.376270        -0.195600
 H         1.034974        -1.689054        -1.784817
 H         3.649116        -1.594823        -1.815045
 H         4.351260        -0.624082         0.857050
 H         3.745815         2.041346        -0.239009
 H         4.865605         0.935189        -1.161320
 H         3.164226         0.521018        -2.781839
