19
Iteration:  2972
 C        -0.082327         0.213976         0.296065
 C         1.326467        -0.184036        -0.237782
 C         1.740404        -1.519170        -0.734039
 C         3.136855        -1.088900        -1.037612
 C         3.526539        -0.111977         0.210774
 C         3.925753         1.017415        -0.781081
 C         2.969590         0.442691        -1.750742
 O         1.656680         0.704828        -1.283043
 O         2.252909         0.096368         0.871364
 H        -0.422935        -0.537539         0.990859
 H         0.013348         1.278373         0.634985
 H        -0.688913         0.195889        -0.589009
 H         1.565918        -2.169486         0.175052
 H         1.081535        -1.938731        -1.597930
 H         3.980192        -1.670496        -1.460474
 H         4.220687        -0.695284         0.895230
 H         3.743238         2.100240        -0.581544
 H         5.020990         0.876429        -1.006551
 H         3.019728         0.758905        -2.921725
