19
Iteration:  4823
 C        -0.066805         0.120565         0.311173
 C         1.345810        -0.124278        -0.235969
 C         1.727268        -1.423308        -0.636426
 C         3.101742        -1.031329        -0.979700
 C         3.600731        -0.168890         0.237626
 C         3.989437         1.005417        -0.700403
 C         2.960924         0.340751        -1.769558
 O         1.596585         0.678256        -1.443607
 O         2.226583         0.192017         0.776264
 H        -0.355868        -0.833838         0.775731
 H        -0.059619         0.954693         1.103875
 H        -0.694948         0.226918        -0.556508
 H         1.507653        -2.178430         0.063451
 H         1.165089        -1.556045        -1.543153
 H         3.765031        -1.827707        -1.364894
 H         4.193266        -0.573159         1.064141
 H         3.813420         1.951262        -0.171090
 H         5.006125         1.104476        -1.108392
 H         3.185216         0.442205        -2.778003
