19
Iteration:  1470charge 0 multiplicity 1
 C        -0.053703         0.034535         0.410299
 C         1.360630        -0.195605        -0.195867
 C         1.626559        -1.486029        -0.857725
 C         3.063746        -1.054435        -1.050910
 C         3.570421        -0.197635         0.163293
 C         3.990250         0.974250        -0.698885
 C         2.931538         0.358002        -1.720001
 O         1.591012         0.874916        -1.285084
 O         2.356080         0.214852         0.814516
 H        -0.284235        -0.751485         1.004537
 H         0.070371         0.962674         0.852255
 H        -0.801192         0.106001        -0.392482
 H         1.422040        -2.335365        -0.201042
 H         1.197801        -1.423037        -1.894843
 H         3.766160        -1.587361        -1.680753
 H         4.203021        -0.528357         1.005374
 H         3.942612         2.017706        -0.380853
 H         5.087540         0.860398        -1.014634
 H         2.975912         0.311245        -2.832225
