19
Iteration:  1792charge 0 multiplicity 1
 C        -0.066772         0.202503         0.438833
 C         1.295351        -0.129896        -0.265257
 C         1.726063        -1.498628        -0.726342
 C         3.151782        -1.024993        -1.103639
 C         3.579197        -0.224551         0.193837
 C         3.906481         0.967179        -0.668813
 C         2.931983         0.466268        -1.819498
 O         1.615774         0.742111        -1.409883
 O         2.279333         0.093870         0.852343
 H        -0.147196        -0.598530         1.234812
 H         0.164991         1.212984         0.804119
 H        -0.730996         0.145103        -0.303451
 H         1.570902        -2.225332         0.107394
 H         1.080195        -1.935785        -1.500754
 H         3.813784        -1.887535        -1.380881
 H         4.272359        -0.728782         0.864071
 H         3.764207         1.955881        -0.137390
 H         4.953971         0.987549        -1.019452
 H         3.250160         0.864976        -2.809690
