19
Iteration:  4510
 C        -0.104612         0.172034         0.320684
 C         1.281550        -0.219063        -0.231577
 C         1.718500        -1.592398        -0.670508
 C         3.139229        -1.013054        -1.055872
 C         3.473982        -0.113207         0.238391
 C         4.090438         1.000282        -0.689177
 C         3.002801         0.387448        -1.805248
 O         1.607347         0.754154        -1.380178
 O         2.233526         0.164512         0.832217
 H        -0.221275        -0.219601         1.387400
 H        -0.355622         1.304276         0.232799
 H        -0.790579        -0.311910        -0.413543
 H         1.712130        -2.254145         0.107004
 H         1.066832        -1.834709        -1.471097
 H         3.914809        -1.640489        -1.453591
 H         4.145111        -0.674157         0.918555
 H         4.071325         2.087730        -0.430826
 H         5.186338         0.859917        -0.978401
 H         3.197106         0.779798        -2.877595
