19
Iteration:   652charge 0 multiplicity 1
 C        -0.126613         0.229083         0.441861
 C         1.287415        -0.095796        -0.087392
 C         1.736131        -1.470996        -0.894580
 C         3.059626        -0.944250        -1.163922
 C         3.585096        -0.190636         0.120221
 C         3.942473         0.963273        -0.728950
 C         2.922098         0.412348        -1.772485
 O         1.656070         0.685800        -1.239887
 O         2.395241         0.055656         0.887452
 H        -0.498060        -0.601535         1.170224
 H        -0.358895         1.217620         0.890730
 H        -0.678198        -0.016671        -0.431349
 H         1.673257        -2.437556        -0.334907
 H         1.073399        -1.589998        -1.804922
 H         3.779538        -1.569026        -1.742011
 H         4.249196        -0.871706         0.627865
 H         3.839319         1.905471        -0.242475
 H         4.989129         0.997250        -1.102720
 H         2.848655         0.527555        -2.826227
