19
Iteration:  1634
 C        -0.002996         0.176632         0.288882
 C         1.323354        -0.093052        -0.242388
 C         1.672651        -1.521234        -0.748294
 C         3.102714        -1.019949        -1.060374
 C         3.626348        -0.250566         0.206096
 C         3.935406         0.979616        -0.736596
 C         2.876337         0.420364        -1.719716
 O         1.517506         0.793538        -1.292442
 O         2.402420         0.051293         0.886534
 H        -0.546853        -0.463191         0.993289
 H        -0.127057         1.247012         0.646564
 H        -0.830123         0.178496        -0.661775
 H         1.565697        -2.329781         0.034291
 H         1.313003        -1.756984        -1.770463
 H         3.886300        -1.586702        -1.519792
 H         4.452160        -0.635418         0.884857
 H         3.731768         1.988457        -0.409477
 H         4.894605         1.058886        -1.239306
 H         3.142993         0.736589        -2.773332
