19
Iteration:  2889
 C        -0.161859         0.109425         0.256937
 C         1.279387        -0.072945        -0.200386
 C         1.783336        -1.469949        -0.789314
 C         3.138608        -1.100241        -0.942933
 C         3.629460        -0.172390         0.195278
 C         3.948689         0.949634        -0.793969
 C         2.976949         0.421741        -1.750288
 O         1.598817         0.771907        -1.295576
 O         2.282011         0.143239         0.858575
 H        -0.055642        -0.250652         1.312849
 H        -0.408376         1.222295         0.387142
 H        -1.069511        -0.345733        -0.228683
 H         1.635417        -2.199709         0.068991
 H         1.262356        -1.710301        -1.696779
 H         3.965908        -1.816153        -1.504144
 H         4.281997        -0.606428         1.000027
 H         3.888507         2.005426        -0.490773
 H         4.968299         0.646026        -1.180115
 H         2.910172         0.692655        -2.843731
