19
Iteration:  2897
 C        -0.207988         0.125466         0.323533
 C         1.323893        -0.071191        -0.278992
 C         1.736628        -1.526188        -0.785105
 C         3.185737        -1.076327        -0.999085
 C         3.561424        -0.141623         0.254886
 C         3.966091         0.918877        -0.781796
 C         2.943934         0.401577        -1.763915
 O         1.596749         0.831990        -1.304549
 O         2.306753         0.138326         0.866890
 H        -0.121830        -0.247154         1.338016
 H        -0.352253         1.230612         0.360648
 H        -0.901922        -0.478570        -0.218931
 H         1.876376        -2.280417        -0.077357
 H         1.259513        -2.045091        -1.596847
 H         3.932990        -1.818147        -1.409448
 H         4.241170        -0.490780         1.096461
 H         4.016027         1.939856        -0.437987
 H         4.909723         0.711208        -1.270396
 H         3.170538         0.653479        -2.879834
