19
Iteration:  3708charge 0 multiplicity 1
 C        -0.031907         0.062613         0.300757
 C         1.355886        -0.109588        -0.244304
 C         1.666322        -1.559337        -0.702054
 C         3.162406        -1.043200        -1.016399
 C         3.557059        -0.190838         0.236656
 C         3.948519         0.986197        -0.634584
 C         2.906886         0.348928        -1.797272
 O         1.640060         0.907535        -1.393016
 O         2.271934         0.149973         0.795136
 H        -0.036767        -0.321109         1.322280
 H        -0.295244         1.136668         0.307540
 H        -0.868626        -0.432396        -0.307434
 H         1.583553        -2.345406         0.136560
 H         1.184588        -2.110014        -1.579820
 H         3.912652        -1.711940        -1.389006
 H         4.151578        -0.499935         1.154971
 H         3.719894         1.988608        -0.353049
 H         4.920947         1.039362        -1.080083
 H         2.962169         0.665522        -2.829115
