19
Iteration:  3965charge 0 multiplicity 1
 C        -0.090295         0.113029         0.280803
 C         1.289837        -0.126974        -0.174038
 C         1.598189        -1.537162        -0.716367
 C         3.154151        -1.054134        -1.022298
 C         3.614186        -0.178642         0.200035
 C         3.947755         1.038287        -0.727845
 C         2.974572         0.367628        -1.697756
 O         1.643810         0.803156        -1.349359
 O         2.320575         0.159213         0.841601
 H        -0.177469        -0.681469         0.960605
 H        -0.367144         1.150728         0.380570
 H        -0.675707        -0.167726        -0.625288
 H         1.525542        -2.588809        -0.208238
 H         1.138920        -1.804271        -1.771898
 H         3.773338        -1.744443        -1.680030
 H         4.228584        -0.387366         1.101033
 H         3.733067         2.036904        -0.291856
 H         5.019880         1.005016        -1.087619
 H         3.118985         0.584570        -2.821831
