19
Iteration:   374
 C        -0.072365         0.246350         0.488641
 C         1.306244        -0.152649        -0.242710
 C         1.735128        -1.529979        -0.832899
 C         3.163382        -0.997993        -1.048334
 C         3.587111        -0.187508         0.159815
 C         3.972688         0.962538        -0.778607
 C         2.898489         0.483855        -1.743475
 O         1.505027         0.812567        -1.276377
 O         2.353959        -0.046398         0.825143
 H        -0.283229        -0.334070         1.337479
 H         0.041397         1.233605         0.896269
 H        -0.927368         0.091656        -0.173548
 H         1.679288        -2.513881        -0.431809
 H         1.299603        -1.714231        -1.775306
 H         3.864165        -1.655328        -1.533039
 H         4.349679        -0.544370         0.931791
 H         3.972798         2.002162        -0.317724
 H         4.865016         0.816721        -1.364872
 H         2.910893         0.721220        -2.841531
