19
Iteration:  3439
 C        -0.044873         0.100280         0.228307
 C         1.334240        -0.088434        -0.156064
 C         1.713994        -1.507593        -0.731149
 C         3.145138        -1.037559        -1.000908
 C         3.560018        -0.148759         0.209600
 C         3.968029         0.992780        -0.748911
 C         2.922546         0.357804        -1.743003
 O         1.610975         0.732525        -1.338471
 O         2.291880         0.185861         0.867387
 H        -0.336891        -0.794477         0.808699
 H        -0.404022         0.957232         0.803452
 H        -0.762492         0.247789        -0.676140
 H         1.545929        -2.297205        -0.023452
 H         1.145031        -1.512700        -1.601086
 H         3.769296        -1.726621        -1.478606
 H         4.183401        -0.663343         0.932267
 H         3.778630         2.021360        -0.387058
 H         5.034391         0.882364        -1.064214
 H         3.022338         0.432948        -2.931722
