19
Iteration:  3342
 C        -0.098460         0.149748         0.341385
 C         1.270302        -0.112804        -0.237075
 C         1.805890        -1.487747        -0.705567
 C         3.173279        -1.006120        -1.106163
 C         3.531783        -0.192711         0.255580
 C         3.948752         0.971398        -0.719141
 C         2.942294         0.337555        -1.754163
 O         1.635338         0.767801        -1.328790
 O         2.237390         0.126986         0.782418
 H        -0.182546        -0.062757         1.439987
 H        -0.139175         1.235015         0.280350
 H        -0.974153        -0.171769        -0.344848
 H         1.812797        -2.183470         0.123951
 H         1.277685        -1.825683        -1.577637
 H         3.815310        -1.762688        -1.336035
 H         4.244151        -0.465961         1.026824
 H         3.686594         1.980108        -0.613469
 H         4.989367         0.784148        -0.849139
 H         3.224706         0.504602        -2.775145
