19
Iteration:  2826charge 0 multiplicity 1
 C        -0.078592         0.236619         0.358595
 C         1.314989        -0.151122        -0.214092
 C         1.751344        -1.523771        -0.769297
 C         3.103889        -0.967824        -1.011570
 C         3.588379        -0.177024         0.259333
 C         4.013113         1.015201        -0.740600
 C         2.939206         0.349894        -1.708337
 O         1.546946         0.743072        -1.383141
 O         2.270129         0.070721         0.758712
 H        -0.466289        -0.585777         0.977561
 H         0.076827         1.100246         0.998914
 H        -0.720820         0.415775        -0.534084
 H         1.705669        -2.249183         0.144194
 H         1.051253        -1.977237        -1.494160
 H         3.874727        -1.724717        -1.322151
 H         4.357729        -0.417601         0.980430
 H         3.865543         2.104790        -0.598977
 H         5.103039         0.839531        -0.968368
 H         3.093498         0.349831        -2.751297
