19
Iteration:  4369charge 0 multiplicity 1
 C        -0.106262         0.136642         0.323916
 C         1.287751        -0.081017        -0.260208
 C         1.745316        -1.478945        -0.728812
 C         3.234069        -1.030607        -0.952414
 C         3.493006        -0.216997         0.208836
 C         3.939893         0.932189        -0.742010
 C         2.973218         0.330848        -1.724956
 O         1.656885         0.798917        -1.395457
 O         2.249188         0.158683         0.808893
 H        -0.073160        -0.460203         1.290524
 H        -0.270731         1.205061         0.686707
 H        -1.050789        -0.065826        -0.212415
 H         1.649581        -2.327472        -0.040681
 H         1.156827        -1.743445        -1.555484
 H         3.978891        -1.639519        -1.457688
 H         4.121451        -0.479481         1.083923
 H         3.812149         1.944332        -0.326433
 H         4.966504         0.990155        -1.174023
 H         3.016320         0.411766        -2.871401
