19
Iteration:  3148
 C        -0.138119         0.137090         0.345757
 C         1.318494        -0.112696        -0.232750
 C         1.757734        -1.548231        -0.796085
 C         3.153017        -1.046015        -1.059229
 C         3.518024        -0.126751         0.233398
 C         3.999509         0.941581        -0.733989
 C         2.998063         0.405253        -1.768004
 O         1.603471         0.723946        -1.330975
 O         2.266796         0.214508         0.863638
 H        -0.153259        -0.243721         1.343873
 H        -0.349725         1.176203         0.403361
 H        -0.784310        -0.426749        -0.345595
 H         1.590427        -2.300318         0.018415
 H         0.972876        -1.704694        -1.585280
 H         3.892200        -1.772500        -1.425010
 H         4.210349        -0.516545         1.015363
 H         3.979142         1.955808        -0.281760
 H         5.014814         0.664606        -1.153952
 H         3.029475         0.614642        -2.847226
