19
Iteration:  2664
 C        -0.072832         0.209210         0.294277
 C         1.329818        -0.121090        -0.215098
 C         1.714816        -1.464385        -0.712954
 C         3.160048        -1.016278        -1.045668
 C         3.562885        -0.198897         0.185496
 C         4.041699         1.000251        -0.707259
 C         2.898814         0.370378        -1.692854
 O         1.553276         0.676014        -1.312391
 O         2.299157         0.144706         0.758876
 H        -0.310707        -0.383094         1.219650
 H        -0.495900         1.236503         0.425091
 H        -0.830273        -0.307772        -0.367295
 H         1.667050        -2.270961         0.078590
 H         1.090119        -1.828957        -1.556158
 H         3.908528        -1.662724        -1.624278
 H         4.208919        -0.520130         1.031040
 H         4.000516         1.994535        -0.276682
 H         5.063403         0.811363        -1.068796
 H         3.043490         0.710122        -2.743334
