19
Iteration:  2566
 C        -0.051817         0.198371         0.312414
 C         1.347951        -0.185043        -0.238591
 C         1.674804        -1.552199        -0.684743
 C         3.094855        -0.998728        -1.158889
 C         3.544700        -0.179191         0.285774
 C         3.992401         1.010912        -0.684882
 C         2.960964         0.369973        -1.671692
 O         1.553687         0.663979        -1.394445
 O         2.334861         0.224339         0.838698
 H        -0.400265        -0.557359         1.045184
 H         0.024903         1.223405         0.724187
 H        -0.827202         0.300103        -0.477407
 H         1.659798        -2.386404        -0.122450
 H         1.007884        -1.828082        -1.493267
 H         3.824416        -1.677848        -1.752942
 H         4.322724        -0.580890         0.957339
 H         3.778997         2.030495        -0.415419
 H         4.959933         1.022842        -1.200001
 H         3.271398         0.531062        -2.748911
