19
Iteration:  1569charge 0 multiplicity 1
 C        -0.028480         0.081521         0.434118
 C         1.312852        -0.084642        -0.254601
 C         1.639435        -1.446793        -0.789499
 C         3.103704        -1.001710        -1.026657
 C         3.594628        -0.172048         0.189544
 C         3.993482         0.981689        -0.756484
 C         2.968145         0.398159        -1.724633
 O         1.621911         0.807637        -1.334802
 O         2.261044         0.038321         0.807003
 H         0.068374        -0.559730         1.263540
 H        -0.061334         1.118710         0.772403
 H        -0.753525        -0.165236        -0.374045
 H         1.420318        -2.249709        -0.037063
 H         1.095681        -1.566028        -1.765975
 H         3.738619        -1.680906        -1.550909
 H         4.211157        -0.449818         1.082611
 H         3.880602         1.985969        -0.358738
 H         4.998090         0.612730        -1.072465
 H         2.876134         0.606506        -2.842776
