19
Iteration:  3349
 C        -0.139396         0.220237         0.371074
 C         1.334477        -0.126736        -0.243481
 C         1.801191        -1.485348        -0.758558
 C         3.161762        -1.017210        -1.014453
 C         3.533041        -0.200139         0.242041
 C         3.933270         0.968835        -0.722703
 C         2.988986         0.344335        -1.766256
 O         1.595563         0.767723        -1.355748
 O         2.229179         0.113140         0.803087
 H        -0.048620        -0.350028         1.280467
 H        -0.277056         1.326121         0.344978
 H        -0.731456        -0.319182        -0.337523
 H         1.852370        -2.133937         0.120531
 H         1.115102        -1.808434        -1.536935
 H         4.010107        -1.749489        -1.332147
 H         4.274692        -0.633406         0.950692
 H         3.635287         2.022125        -0.405405
 H         5.021145         1.027702        -1.057406
 H         3.194298         0.339025        -2.943534
