19
Iteration:    72
 C        -0.127028         0.203250         0.417458
 C         1.252226        -0.191465        -0.154593
 C         1.732882        -1.483285        -0.895142
 C         3.131699        -0.991218        -1.107334
 C         3.654648        -0.279645         0.155539
 C         3.963154         0.960733        -0.736563
 C         2.863186         0.459652        -1.648521
 O         1.541454         0.780000        -1.276740
 O         2.417598         0.106702         0.826650
 H        -0.289100        -0.311149         1.451844
 H        -0.054813         1.321286         0.623427
 H        -0.890678        -0.106816        -0.381347
 H         1.602718        -2.412018        -0.215814
 H         1.124236        -1.621004        -1.862593
 H         3.876120        -1.665161        -1.560291
 H         4.436679        -0.817854         0.743313
 H         3.831265         1.975315        -0.358788
 H         4.941468         0.933513        -1.302411
 H         3.034804         0.640917        -2.766360
