19
Iteration:  3942
 C        -0.140091         0.092860         0.305730
 C         1.320837        -0.081043        -0.225243
 C         1.772822        -1.388143        -0.777453
 C         3.149879        -1.034221        -1.036957
 C         3.544633        -0.209027         0.229871
 C         3.992462         0.947869        -0.703680
 C         2.949486         0.387898        -1.719881
 O         1.574955         0.754035        -1.329127
 O         2.291982         0.144051         0.799529
 H        -0.042466        -0.424601         1.201625
 H        -0.192650         1.180779         0.316107
 H        -0.960827        -0.217243        -0.316401
 H         1.753665        -2.266401         0.031835
 H         1.245086        -1.880218        -1.655365
 H         3.930594        -1.815300        -1.393660
 H         4.173853        -0.552257         1.095804
 H         3.758602         1.955864        -0.300541
 H         5.044841         0.915502        -0.985634
 H         2.943075         0.405348        -2.855777
