19
Iteration:  3830charge 0 multiplicity 1
 C        -0.130149         0.099477         0.320730
 C         1.278895        -0.130776        -0.234507
 C         1.819273        -1.577380        -0.734282
 C         3.139305        -1.016351        -1.013211
 C         3.578527        -0.178648         0.199182
 C         3.965172         0.921751        -0.725514
 C         2.965249         0.432726        -1.756113
 O         1.555172         0.830437        -1.356889
 O         2.271464         0.204385         0.835565
 H        -0.512924        -0.679886         1.033456
 H        -0.004124         1.029942         0.880593
 H        -0.783202         0.237835        -0.491023
 H         1.492425        -2.469730        -0.089789
 H         1.565968        -1.978798        -1.733623
 H         3.914493        -1.743483        -1.181806
 H         4.229458        -0.555407         1.044900
 H         4.048036         1.940845        -0.443074
 H         4.965551         0.658217        -0.998106
 H         3.065082         0.662321        -2.822991
