19
Iteration:  1301
 C        -0.055898         0.172923         0.341949
 C         1.337014        -0.100896        -0.174230
 C         1.727791        -1.586828        -0.762004
 C         3.106555        -1.071855        -1.157005
 C         3.518680        -0.196157         0.200119
 C         3.929327         0.975583        -0.740213
 C         2.921642         0.419033        -1.780965
 O         1.618817         0.869506        -1.194889
 O         2.330113         0.073680         0.805461
 H        -0.366433        -0.814018         0.951475
 H        -0.058175         1.196007         0.949120
 H        -0.550936         0.177696        -0.651860
 H         1.770286        -2.300519         0.055815
 H         1.018606        -1.877939        -1.516546
 H         3.791736        -1.789236        -1.618812
 H         4.339625        -0.500778         0.872703
 H         3.707107         2.080852        -0.645845
 H         5.000616         0.909724        -0.924316
 H         2.950017         0.747746        -2.834009
