19
Iteration:  2173
 C        -0.118981         0.265754         0.268448
 C         1.317078        -0.117839        -0.252503
 C         1.779953        -1.603131        -0.664143
 C         3.192403        -1.003764        -0.997661
 C         3.540754        -0.284124         0.168582
 C         3.948849         0.960492        -0.747301
 C         2.913885         0.442059        -1.749093
 O         1.577682         0.842478        -1.307829
 O         2.302827         0.064917         0.814091
 H        -0.313062        -0.533741         1.068837
 H        -0.128575         1.317432         0.746364
 H        -0.942026         0.278456        -0.505924
 H         1.991431        -2.239946         0.231475
 H         1.245229        -2.101506        -1.508506
 H         3.955422        -1.635712        -1.435596
 H         4.273775        -0.780724         0.832186
 H         3.564862         1.951644        -0.283924
 H         4.992536         0.825431        -1.157534
 H         2.990443         0.748542        -2.869783
