19
Iteration:   654
 C        -0.123531         0.208461         0.454674
 C         1.312516        -0.104183        -0.086581
 C         1.722263        -1.467333        -0.907226
 C         3.046601        -0.962837        -1.139491
 C         3.599113        -0.177729         0.117859
 C         3.953101         0.953078        -0.730822
 C         2.917290         0.411850        -1.784274
 O         1.640996         0.688623        -1.244127
 O         2.401808         0.065688         0.889953
 H        -0.475737        -0.583247         1.123502
 H        -0.436261         1.192456         0.871171
 H        -0.712392         0.060006        -0.515896
 H         1.617139        -2.448514        -0.376376
 H         1.086531        -1.491279        -1.802998
 H         3.802511        -1.559944        -1.698927
 H         4.188227        -0.912498         0.607064
 H         3.795285         2.057322        -0.265027
 H         5.033537         0.976776        -1.046172
 H         2.901787         0.563399        -2.776367
