19
Iteration:  3293
 C        -0.173278         0.103082         0.255024
 C         1.290224        -0.097731        -0.211494
 C         1.758509        -1.442987        -0.729204
 C         3.164058        -1.110970        -1.018199
 C         3.591034        -0.157310         0.208865
 C         3.945244         0.936449        -0.742318
 C         2.934560         0.359805        -1.761897
 O         1.618294         0.775754        -1.319670
 O         2.315714         0.189797         0.866060
 H        -0.255447        -0.373862         1.242606
 H        -0.440896         1.191114         0.357726
 H        -0.757452        -0.379033        -0.491519
 H         1.574762        -2.128069         0.114646
 H         0.983688        -1.560315        -1.512711
 H         3.848545        -1.726986        -1.720230
 H         4.419482        -0.383234         0.921123
 H         3.737101         1.918920        -0.205952
 H         5.004617         0.859091        -1.131667
 H         3.424155         0.312646        -2.788905
