19
Iteration:  2839
 C        -0.076598         0.206534         0.313843
 C         1.263555        -0.104455        -0.226261
 C         1.759246        -1.449726        -0.632508
 C         3.238016        -1.046366        -1.035100
 C         3.554445        -0.196543         0.161458
 C         3.946901         0.983044        -0.736850
 C         2.938537         0.362495        -1.786192
 O         1.605970         0.740374        -1.330929
 O         2.250407         0.081514         0.808272
 H        -0.461946        -0.497743         1.052821
 H         0.016801         1.159037         0.757316
 H        -0.848964         0.387508        -0.445498
 H         1.841114        -2.150148         0.205793
 H         1.301156        -1.830612        -1.586467
 H         3.926574        -1.596581        -1.527516
 H         3.988396        -0.728610         0.980849
 H         3.796953         1.883109        -0.126352
 H         4.881595         0.909930        -1.271652
 H         2.973678         0.512889        -2.844684
