19
Iteration:  3875charge 0 multiplicity 1
 C        -0.094445         0.157088         0.248806
 C         1.347052        -0.111832        -0.151818
 C         1.717963        -1.504166        -0.788635
 C         3.150507        -1.068358        -1.000375
 C         3.504977        -0.196317         0.229092
 C         3.895306         1.005887        -0.719779
 C         2.930828         0.385354        -1.769303
 O         1.630917         0.781290        -1.385747
 O         2.349663         0.134942         0.915778
 H        -0.303162        -0.509800         1.076099
 H        -0.253164         1.189102         0.522438
 H        -0.606721        -0.176137        -0.554455
 H         1.720589        -2.464628        -0.165028
 H         1.035604        -1.850178        -1.556485
 H         3.840726        -1.809822        -1.470495
 H         4.385135        -0.479445         0.836995
 H         3.630275         1.974190        -0.292631
 H         4.885424         1.117312        -1.075980
 H         3.157665         0.601222        -2.838222
