19
Iteration:  1941charge 0 multiplicity 1
 C        -0.066322         0.195929         0.360934
 C         1.314510        -0.117162        -0.267070
 C         1.684032        -1.525586        -0.748210
 C         3.109737        -1.056602        -1.061654
 C         3.539547        -0.112516         0.187425
 C         3.968694         1.009498        -0.754764
 C         2.939194         0.353709        -1.744539
 O         1.658279         0.809757        -1.252074
 O         2.270102        -0.000176         0.813802
 H        -0.229095        -0.291813         1.345686
 H        -0.225025         1.260009         0.509542
 H        -0.853032        -0.108745        -0.368673
 H         1.861758        -2.153095         0.087665
 H         1.206569        -1.902210        -1.618712
 H         3.953972        -1.681672        -1.529891
 H         4.318571        -0.441594         0.893855
 H         3.793130         2.081288        -0.574695
 H         5.047254         1.029414        -1.021564
 H         3.003529         0.544456        -2.840084
