19
Iteration:  4099charge 0 multiplicity 1
 C        -0.142526         0.131098         0.247130
 C         1.334003        -0.092151        -0.119447
 C         1.791281        -1.537925        -0.800775
 C         3.146369        -0.988013        -1.062574
 C         3.568302        -0.184244         0.264508
 C         3.961393         0.949162        -0.754815
 C         2.947949         0.349254        -1.749975
 O         1.571995         0.749690        -1.311496
 O         2.290882         0.160597         0.851886
 H        -0.495669        -0.206975         1.274115
 H        -0.251321         1.262317         0.278708
 H        -0.845561        -0.213734        -0.523060
 H         1.904982        -2.150956         0.077682
 H         0.957747        -1.521367        -1.628973
 H         3.878879        -1.551276        -1.577141
 H         4.308179        -0.522693         1.019501
 H         3.904128         2.027457        -0.459528
 H         5.033687         0.589745        -1.022577
 H         3.123660         0.455981        -2.835694
