19
Iteration:  3602charge 0 multiplicity 1
 C        -0.069535         0.139181         0.300915
 C         1.373613        -0.103124        -0.235215
 C         1.726272        -1.468147        -0.746113
 C         3.171262        -1.002348        -1.014949
 C         3.563073        -0.215568         0.255312
 C         3.900406         0.993340        -0.710859
 C         2.936355         0.402319        -1.703428
 O         1.605344         0.688535        -1.389709
 O         2.276779         0.163014         0.806959
 H        -0.393396        -0.671196         0.940643
 H        -0.087547         1.010467         0.925653
 H        -0.714472         0.191966        -0.577209
 H         1.579966        -2.129702         0.127811
 H         1.175115        -1.599098        -1.684771
 H         3.865630        -1.725901        -1.396121
 H         4.275791        -0.408254         1.108541
 H         3.642046         2.010845        -0.333612
 H         4.917790         0.681912        -1.149626
 H         3.015736         0.328108        -2.852757
