19
Iteration:  2105charge 0 multiplicity 1
 C        -0.128836         0.122102         0.367824
 C         1.271129        -0.079610        -0.259845
 C         1.708972        -1.512892        -0.695613
 C         3.092921        -1.026080        -1.121316
 C         3.567625        -0.181920         0.261265
 C         4.025098         0.908489        -0.726338
 C         2.985771         0.450790        -1.725380
 O         1.598990         0.847614        -1.354192
 O         2.294139         0.067871         0.784750
 H         0.040449        -0.498040         1.256268
 H        -0.341499         1.163847         0.544545
 H        -0.687707        -0.316748        -0.335662
 H         1.687760        -2.089964         0.254408
 H         1.055810        -1.909646        -1.483770
 H         3.870488        -1.673780        -1.520077
 H         4.167396        -0.538012         1.123887
 H         3.982503         2.017488        -0.391909
 H         5.022255         0.679248        -1.224103
 H         3.243076         0.611728        -2.789297
