19
Iteration:   978charge 0 multiplicity 1
 C        -0.039758         0.148940         0.376866
 C         1.339987        -0.099812        -0.203054
 C         1.693383        -1.495701        -0.731599
 C         3.101429        -1.031152        -1.098424
 C         3.627730        -0.245928         0.148516
 C         3.980921         0.973081        -0.758003
 C         2.882468         0.492583        -1.746824
 O         1.541798         0.864279        -1.273342
 O         2.337560         0.003407         0.807519
 H        -0.219040        -0.476279         1.352840
 H        -0.381252         1.240325         0.589243
 H        -0.763737        -0.328345        -0.312174
 H         1.736108        -2.231447         0.114431
 H         1.123966        -1.855615        -1.575630
 H         3.776997        -1.549103        -1.771478
 H         4.348091        -0.601062         0.881630
 H         3.779964         1.905437        -0.282542
 H         5.123613         0.866022        -1.032331
 H         2.977975         0.506467        -2.826539
