19
Iteration:  4220
 C        -0.153557         0.129669         0.236688
 C         1.335402        -0.070889        -0.219324
 C         1.722775        -1.532399        -0.661781
 C         3.116407        -1.060283        -1.044583
 C         3.553857        -0.164405         0.240666
 C         3.905539         0.975406        -0.739456
 C         3.020413         0.386561        -1.792425
 O         1.612035         0.769649        -1.380854
 O         2.336878         0.135162         0.917852
 H        -0.494341        -0.757005         0.789121
 H        -0.250768         1.025122         0.879893
 H        -0.804859         0.325681        -0.613819
 H         2.019822        -2.034504         0.187885
 H         1.123565        -1.857989        -1.569585
 H         3.746245        -1.661437        -1.720190
 H         4.272676        -0.516470         0.984644
 H         3.693059         2.042796        -0.445019
 H         4.976172         0.757416        -0.919531
 H         3.133782         0.497118        -2.865705
