19
Iteration:    59
 C        -0.020250         0.115530         0.381554
 C         1.381968        -0.093212        -0.124839
 C         1.681951        -1.421075        -0.889467
 C         3.109515        -1.029047        -1.147716
 C         3.610540        -0.224508         0.174814
 C         4.021095         0.929395        -0.716219
 C         2.908495         0.424381        -1.725362
 O         1.423710         0.740525        -1.245739
 O         2.403787         0.135307         0.872423
 H        -0.479263        -0.316671         1.431632
 H        -0.264205         1.219824         0.335016
 H        -0.746455        -0.249934        -0.378207
 H         1.481265        -2.542439        -0.488523
 H         1.159895        -1.355495        -1.893919
 H         3.742664        -1.625867        -1.848359
 H         4.254322        -0.546352         1.048093
 H         4.076382         1.959112        -0.222772
 H         4.929021         0.614375        -1.159876
 H         2.895410         0.673683        -2.740363
