19
Iteration:   718charge 0 multiplicity 1
 C        -0.101134         0.115001         0.458555
 C         1.343508        -0.171086        -0.130409
 C         1.701481        -1.437843        -0.811639
 C         3.070595        -0.979140        -1.220238
 C         3.610983        -0.239018         0.122405
 C         4.046497         0.955976        -0.715775
 C         2.915379         0.466025        -1.732671
 O         1.590868         0.753393        -1.288228
 O         2.290102         0.131754         0.856203
 H        -0.656428        -0.588817         1.113863
 H         0.058062         1.059669         1.016877
 H        -0.774300         0.088067        -0.381469
 H         1.772656        -2.333143        -0.137078
 H         0.960330        -1.695242        -1.584318
 H         3.647675        -1.742595        -1.777426
 H         4.311498        -0.692860         0.814726
 H         3.987856         1.913947        -0.353007
 H         5.008327         0.749490        -1.158868
 H         3.147735         0.823158        -2.746769
