19
Iteration:  1870charge 0 multiplicity 1
 C        -0.061125         0.070848         0.276818
 C         1.289141        -0.067473        -0.216580
 C         1.726542        -1.473626        -0.719226
 C         3.127321        -1.049145        -0.989543
 C         3.586709        -0.176847         0.154842
 C         3.975038         0.947034        -0.809323
 C         2.882689         0.384902        -1.711260
 O         1.633461         0.884700        -1.262572
 O         2.284035         0.044641         0.803777
 H        -0.228236        -0.581560         1.150936
 H        -0.099024         1.120712         0.670475
 H        -0.772159         0.013155        -0.469543
 H         1.530950        -1.986359         0.263774
 H         1.184930        -1.826283        -1.641004
 H         3.774539        -1.760725        -1.411966
 H         4.257021        -0.542618         0.935882
 H         3.907511         2.018830        -0.494298
 H         5.030641         0.869892        -1.166591
 H         3.024272         0.439555        -2.790910
