19
Iteration:  4881
 C        -0.044413         0.189538         0.218538
 C         1.348894        -0.093343        -0.220654
 C         1.681490        -1.537698        -0.671413
 C         3.105347        -1.054339        -1.000273
 C         3.540643        -0.090922         0.246565
 C         3.929196         1.020070        -0.775447
 C         2.978878         0.338916        -1.747383
 O         1.611422         0.761630        -1.362981
 O         2.300975         0.089576         0.909726
 H        -0.313389        -0.641880         0.890451
 H        -0.331833         1.205133         0.445835
 H        -0.623303        -0.063383        -0.705248
 H         1.542449        -2.153262         0.277606
 H         1.074093        -1.904388        -1.670569
 H         3.842865        -1.814378        -1.361966
 H         4.408662        -0.551003         0.754180
 H         3.808370         2.106451        -0.535381
 H         4.939477         0.730456        -1.120426
 H         3.180482         0.464231        -2.780716
