19
Iteration:  2019charge 0 multiplicity 1
 C        -0.063002         0.159280         0.379873
 C         1.337999        -0.070186        -0.187808
 C         1.760644        -1.512566        -0.772159
 C         3.100364        -1.019290        -1.186435
 C         3.472753        -0.189212         0.222603
 C         3.935136         0.941459        -0.653511
 C         2.988572         0.386731        -1.763987
 O         1.612581         0.761177        -1.382231
 O         2.276742         0.150165         0.842717
 H        -0.298173        -0.670968         1.124904
 H        -0.261803         0.998766         1.091613
 H        -0.895728         0.145704        -0.223397
 H         1.875591        -2.171394         0.037100
 H         1.125011        -1.947049        -1.449531
 H         3.880598        -1.639559        -1.650928
 H         4.237173        -0.546262         0.919757
 H         4.057622         2.034136        -0.405881
 H         4.946471         0.651536        -0.890835
 H         3.317563         0.474203        -2.854515
