19
Iteration:  1032
 C        -0.042203         0.163031         0.400712
 C         1.357318        -0.147757        -0.142566
 C         1.703186        -1.374116        -0.840773
 C         3.163100        -1.035922        -1.047158
 C         3.597032        -0.231429         0.191523
 C         3.969015         1.002901        -0.746191
 C         2.824031         0.441550        -1.765223
 O         1.511321         0.779392        -1.366408
 O         2.353258         0.013689         0.889290
 H        -0.137782        -0.597883         1.262570
 H        -0.066379         1.277529         0.623012
 H        -0.874086        -0.125181        -0.287576
 H         1.592191        -2.232649        -0.136194
 H         1.234860        -1.469334        -1.807452
 H         3.890411        -1.745697        -1.442474
 H         4.318089        -0.722496         0.855572
 H         4.043968         1.978590        -0.439554
 H         4.871293         0.773514        -1.260189
 H         3.039655         0.615664        -2.799832
