19
Iteration:  3897
 C        -0.104081         0.208202         0.301212
 C         1.293203        -0.149425        -0.280035
 C         1.786638        -1.472419        -0.741206
 C         3.183047        -1.014572        -1.031959
 C         3.624643        -0.168484         0.225497
 C         3.966770         0.987053        -0.691156
 C         2.965268         0.336938        -1.722092
 O         1.549705         0.747248        -1.276227
 O         2.239272         0.111050         0.802803
 H        -0.248384        -0.318651         1.211887
 H        -0.256748         1.288032         0.333557
 H        -0.749174        -0.212763        -0.396214
 H         1.505782        -2.316461        -0.046973
 H         1.220948        -1.705523        -1.661904
 H         3.793369        -1.736110        -1.618947
 H         4.371691        -0.652117         0.848308
 H         3.715966         1.994440        -0.367572
 H         4.949036         1.020047        -1.087221
 H         3.093749         0.439888        -2.824088
