19
Iteration:  3681charge 0 multiplicity 1
 C        -0.156039         0.102428         0.300335
 C         1.295701        -0.097853        -0.199797
 C         1.691250        -1.487167        -0.724363
 C         3.177779        -0.973186        -1.106406
 C         3.530559        -0.153560         0.228820
 C         4.009427         0.975053        -0.695211
 C         2.971375         0.351028        -1.686767
 O         1.630167         0.707086        -1.372660
 O         2.307267         0.160727         0.826824
 H        -0.149627        -0.521240         1.226749
 H        -0.412654         1.159871         0.514869
 H        -0.927546        -0.238555        -0.354482
 H         1.691002        -2.255008         0.008181
 H         1.218291        -1.766132        -1.627712
 H         3.925885        -1.724806        -1.470690
 H         4.145067        -0.419388         1.063685
 H         3.889210         2.072391        -0.507656
 H         4.978405         0.802169        -1.232857
 H         3.010534         0.666157        -2.751325
