19
Iteration:  3604charge 0 multiplicity 1
 C        -0.073365         0.139654         0.297121
 C         1.391372        -0.113317        -0.228819
 C         1.734556        -1.468201        -0.730318
 C         3.168278        -1.001171        -1.006437
 C         3.561193        -0.216917         0.259739
 C         3.890303         0.991129        -0.719428
 C         2.944131         0.400287        -1.717570
 O         1.607590         0.703460        -1.406722
 O         2.268327         0.155252         0.813792
 H        -0.428544        -0.708358         0.962231
 H        -0.124395         1.052291         0.946309
 H        -0.756014         0.221817        -0.544446
 H         1.594450        -2.115766         0.092239
 H         1.179677        -1.540825        -1.623864
 H         3.922594        -1.744172        -1.379955
 H         4.292006        -0.523406         1.041653
 H         3.640328         2.013701        -0.321042
 H         4.891303         0.724322        -1.141297
 H         2.984763         0.364909        -2.864497
