19
Iteration:  1710
 C        -0.121033         0.084713         0.328425
 C         1.312754        -0.116420        -0.191903
 C         1.687365        -1.515721        -0.737289
 C         3.116316        -1.044308        -1.097439
 C         3.570331        -0.277728         0.166462
 C         4.014545         0.925286        -0.752047
 C         2.933482         0.464335        -1.722815
 O         1.571103         0.790247        -1.285295
 O         2.374143         0.236341         0.818903
 H        -0.231193        -0.524160         1.211893
 H        -0.425834         1.120432         0.637475
 H        -0.915193        -0.243252        -0.461813
 H         1.807014        -2.196773         0.059198
 H         1.123984        -1.544606        -1.628462
 H         3.795244        -1.690218        -1.598817
 H         4.301578        -0.665420         0.908961
 H         3.675900         1.775624        -0.233607
 H         5.029790         0.855373        -1.062193
 H         3.158278         0.710712        -2.756626
