19
Iteration:   936
 C        -0.071908         0.111548         0.405604
 C         1.294771        -0.110732        -0.140834
 C         1.655382        -1.542927        -0.806501
 C         3.118529        -1.019851        -1.089236
 C         3.620987        -0.190879         0.147920
 C         4.041644         0.986942        -0.782625
 C         2.879274         0.413436        -1.715916
 O         1.577685         0.858656        -1.185993
 O         2.335176         0.054417         0.738524
 H        -0.245223        -0.735980         0.996378
 H        -0.076139         1.093446         0.856021
 H        -0.761810         0.067730        -0.433717
 H         1.519172        -2.300494        -0.012236
 H         1.138583        -1.682232        -1.734144
 H         3.821261        -1.676833        -1.595431
 H         4.248001        -0.564358         0.933308
 H         3.887352         2.023212        -0.479454
 H         5.129163         0.944415        -1.254605
 H         2.876308         0.712799        -2.798626
