19
Iteration:  3945
 C        -0.166975         0.086430         0.302250
 C         1.348655        -0.072915        -0.239566
 C         1.775629        -1.406580        -0.793538
 C         3.128111        -1.065810        -1.017309
 C         3.562011        -0.197006         0.230093
 C         3.976279         0.946895        -0.699603
 C         2.948752         0.412039        -1.714512
 O         1.581372         0.750286        -1.319737
 O         2.310127         0.149561         0.791052
 H        -0.104373        -0.423610         1.260829
 H        -0.140967         1.164936         0.369039
 H        -1.006630        -0.254063        -0.376829
 H         1.577574        -2.149565        -0.014637
 H         1.215805        -1.869268        -1.630994
 H         3.933236        -1.759716        -1.240115
 H         4.247808        -0.628876         0.981022
 H         3.718674         1.968334        -0.328707
 H         5.083247         0.990136        -1.038819
 H         2.948824         0.391786        -2.802781
