19
Iteration:   401
 C         0.009556         0.121266         0.400457
 C         1.381949        -0.125979        -0.177527
 C         1.677527        -1.521746        -0.766792
 C         3.064087        -0.983500        -1.219057
 C         3.478047        -0.224329         0.118618
 C         3.946740         0.978935        -0.791641
 C         2.948690         0.463100        -1.748757
 O         1.698805         0.826874        -1.179218
 O         2.248103         0.062378         0.856312
 H        -0.101807        -0.425108         1.420161
 H        -0.180532         1.185571         0.685757
 H        -0.729483        -0.334506        -0.246205
 H         1.896491        -2.377182        -0.077609
 H         0.861486        -1.969716        -1.453123
 H         3.827304        -1.496060        -1.863414
 H         4.143258        -0.642284         0.830291
 H         3.656272         1.951780        -0.450373
 H         5.050128         0.933459        -1.139586
 H         2.955403         0.716400        -2.785357
