19
Iteration:  4986charge 0 multiplicity 1
 C        -0.067843         0.085856         0.155888
 C         1.333040        -0.062989        -0.177018
 C         1.648291        -1.421415        -0.665203
 C         3.089834        -1.036911        -1.035117
 C         3.589060        -0.218543         0.239681
 C         3.910049         1.076219        -0.740638
 C         3.028314         0.289517        -1.706286
 O         1.627115         0.673455        -1.338751
 O         2.306099         0.188359         0.840907
 H        -0.548964        -0.442541         1.025948
 H        -0.108092         1.161583         0.564474
 H        -0.744466        -0.101606        -0.710977
 H         1.662971        -2.191047         0.076301
 H         1.104031        -1.730911        -1.464909
 H         3.755846        -1.908104        -1.403330
 H         4.517204        -0.366572         0.867042
 H         3.581354         2.062239        -0.335475
 H         4.924766         1.081969        -1.115943
 H         3.163504         0.365370        -2.856310
