19
Iteration:   774charge 0 multiplicity 1
 C        -0.027500         0.169082         0.480747
 C         1.322233        -0.097470        -0.206399
 C         1.698979        -1.501602        -0.805321
 C         3.072373        -0.930695        -1.222691
 C         3.457667        -0.214683         0.130378
 C         4.002283         1.027099        -0.724123
 C         2.970689         0.431784        -1.798840
 O         1.631652         0.710424        -1.213959
 O         2.313871         0.003725         0.853607
 H        -0.072675        -0.385238         1.359335
 H        -0.390902         1.222135         0.626469
 H        -0.880145        -0.146973        -0.247550
 H         1.829132        -2.236271         0.037728
 H         0.886861        -1.705184        -1.500178
 H         3.792476        -1.638739        -1.633896
 H         4.292283        -0.635878         0.650331
 H         3.959363         2.012248        -0.368268
 H         4.973582         0.930374        -1.065166
 H         3.128175         0.810892        -2.802022
