19
Iteration:  2194
 C        -0.024169         0.213088         0.274516
 C         1.320419        -0.169547        -0.176558
 C         1.755654        -1.538236        -0.734793
 C         3.103011        -1.073559        -1.173020
 C         3.568012        -0.157280         0.203427
 C         3.986640         0.995868        -0.671280
 C         2.916488         0.373594        -1.662538
 O         1.590837         0.706312        -1.294838
 O         2.299529         0.179544         0.808274
 H        -0.705411        -0.428506         0.887204
 H        -0.061730         1.249029         0.703814
 H        -0.680123         0.392844        -0.549226
 H         1.688819        -2.341750         0.072905
 H         1.055650        -1.816046        -1.625158
 H         3.716947        -1.698887        -1.815030
 H         4.170550        -0.459328         1.088553
 H         3.725932         2.049019        -0.202556
 H         4.997892         0.805091        -1.162841
 H         2.944006         0.605266        -2.792231
