19
Iteration:  1347charge 0 multiplicity 1
 C        -0.071777         0.081024         0.413388
 C         1.324917        -0.104443        -0.252848
 C         1.725538        -1.475253        -0.796396
 C         3.124024        -1.020340        -1.103032
 C         3.574484        -0.180384         0.234103
 C         3.978133         0.855269        -0.725060
 C         2.902567         0.454416        -1.729385
 O         1.557973         0.843929        -1.277700
 O         2.326127         0.118821         0.748612
 H        -0.237675        -0.564883         1.338268
 H        -0.151274         1.145932         0.803379
 H        -0.836317        -0.162947        -0.271538
 H         1.608404        -2.193900         0.021900
 H         1.322059        -1.842192        -1.717216
 H         3.754211        -1.702515        -1.748211
 H         4.233025        -0.447424         1.051313
 H         3.966245         1.849226        -0.177928
 H         5.044634         0.781502        -1.065479
 H         3.061025         0.674205        -2.727849
