19
Iteration:  4627
 C        -0.161223         0.150585         0.255989
 C         1.259513        -0.128247        -0.203767
 C         1.771680        -1.507974        -0.741274
 C         3.170940        -1.074087        -0.977555
 C         3.579707        -0.146065         0.174083
 C         3.969233         1.013463        -0.675857
 C         2.951213         0.349894        -1.790114
 O         1.612766         0.689899        -1.393195
 O         2.311436         0.219901         0.868810
 H        -0.356989        -0.688532         0.880397
 H        -0.113811         0.985865         0.916746
 H        -0.753045         0.398730        -0.558983
 H         1.661798        -2.205307         0.127288
 H         0.995767        -1.777428        -1.637097
 H         3.952510        -1.723032        -1.319770
 H         4.151157        -0.671729         0.925284
 H         3.757879         1.957927        -0.244010
 H         5.028509         0.913773        -0.863116
 H         3.004475         0.623852        -2.803499
