19
Iteration:   712charge 0 multiplicity 1
 C        -0.116530         0.102593         0.504186
 C         1.313223        -0.177459        -0.140857
 C         1.725482        -1.497984        -0.778017
 C         3.065057        -1.011095        -1.241084
 C         3.557615        -0.217180         0.106565
 C         4.061527         0.943665        -0.749037
 C         3.001580         0.505576        -1.786644
 O         1.583167         0.815732        -1.288836
 O         2.276825         0.125737         0.881326
 H        -0.551786        -0.684512         1.128083
 H        -0.120803         1.065415         1.009506
 H        -0.799736         0.264617        -0.411948
 H         1.932144        -2.289430        -0.065447
 H         0.968223        -1.786015        -1.506364
 H         3.753604        -1.703392        -1.716497
 H         4.129538        -0.826191         0.841941
 H         4.002596         1.940689        -0.053784
 H         5.037453         0.738757        -1.262217
 H         3.199160         0.704134        -2.889115
