19
Iteration:  3264
 C        -0.002277         0.126761         0.314271
 C         1.278309        -0.145373        -0.240202
 C         1.768471        -1.473504        -0.697899
 C         3.107601        -0.967407        -0.982757
 C         3.466479        -0.175944         0.216356
 C         4.029695         1.004175        -0.772154
 C         2.973558         0.338732        -1.769145
 O         1.604186         0.748851        -1.332016
 O         2.232668         0.132633         0.802303
 H        -0.380743        -0.519615         1.126605
 H        -0.103357         1.191609         0.691073
 H        -0.808331         0.045366        -0.468243
 H         1.641926        -2.213476         0.082815
 H         1.092917        -1.759123        -1.474830
 H         3.875416        -1.644912        -1.501268
 H         4.146479        -0.618797         0.984247
 H         3.787213         1.999531        -0.416646
 H         5.081236         0.967096        -1.015553
 H         3.419496         0.221621        -2.821685
