19
Iteration:  4225
 C        -0.112987         0.089359         0.235508
 C         1.314354        -0.047695        -0.211564
 C         1.695149        -1.469052        -0.655477
 C         3.156979        -1.013297        -1.056707
 C         3.586584        -0.122154         0.215640
 C         3.952427         0.974353        -0.689614
 C         2.968817         0.328921        -1.776643
 O         1.601185         0.752575        -1.378167
 O         2.307379         0.110203         0.874457
 H        -0.579332        -0.709549         0.837884
 H        -0.158205         1.029793         0.822111
 H        -0.775999         0.402927        -0.632607
 H         1.747831        -2.352601         0.190974
 H         1.110370        -1.924516        -1.434821
 H         3.778694        -1.735708        -1.604521
 H         4.275896        -0.545875         0.960046
 H         3.793977         2.025110        -0.475767
 H         5.031097         0.831841        -0.944540
 H         3.110705         0.551645        -2.857708
