19
Iteration:  2473charge 0 multiplicity 1
 C        -0.045572         0.156544         0.317337
 C         1.228719        -0.096916        -0.350811
 C         1.688644        -1.526655        -0.667487
 C         3.095464        -1.024603        -1.013442
 C         3.628245        -0.221339         0.195632
 C         3.983016         0.978750        -0.690740
 C         2.936692         0.426171        -1.730782
 O         1.586463         0.817076        -1.374658
 O         2.326174         0.120556         0.828100
 H         0.096929        -0.539656         1.134050
 H        -0.155536         1.216943         0.288836
 H        -0.845520        -0.349744        -0.284924
 H         1.572506        -2.175024         0.171047
 H         1.231041        -2.250443        -1.328785
 H         3.788811        -1.813135        -1.238004
 H         4.224369        -0.607802         1.059064
 H         4.055541         2.003216        -0.228710
 H         4.956038         0.917255        -1.227584
 H         2.895751         0.561001        -2.786689
