19
Iteration:  4797charge 0 multiplicity 1
 C        -0.239313         0.170906         0.285362
 C         1.339445        -0.106686        -0.241811
 C         1.787908        -1.557460        -0.669880
 C         3.142450        -1.041837        -1.045195
 C         3.503744        -0.167094         0.240360
 C         3.899218         0.985242        -0.757491
 C         2.998378         0.342432        -1.760354
 O         1.667830         0.751647        -1.356720
 O         2.336263         0.188751         0.834103
 H        -0.527513        -0.576923         1.057977
 H        -0.267876         1.130424         0.788975
 H        -0.873212         0.100159        -0.640643
 H         1.810074        -2.216354         0.222802
 H         1.092022        -1.929819        -1.343523
 H         3.970665        -1.651542        -1.393139
 H         4.217359        -0.642076         0.934337
 H         3.759389         1.955587        -0.279860
 H         4.932481         1.010108        -1.155232
 H         3.248352         0.530944        -2.909570
