19
Iteration:  1218
 C        -0.102925         0.111484         0.430614
 C         1.223853        -0.050613        -0.245077
 C         1.659737        -1.445434        -0.772756
 C         3.154908        -1.061292        -1.097434
 C         3.593811        -0.207172         0.129788
 C         4.051197         0.990147        -0.754125
 C         2.963918         0.407156        -1.692408
 O         1.562441         0.900559        -1.306888
 O         2.341365        -0.018924         0.827480
 H        -0.108871        -0.552373         1.225189
 H        -0.494170         1.049881         0.756290
 H        -0.919429        -0.301602        -0.234765
 H         1.685291        -2.086382         0.160848
 H         1.068774        -1.980771        -1.542350
 H         3.920170        -1.741867        -1.588601
 H         4.452268        -0.468741         0.740403
 H         3.855278         2.055486        -0.514653
 H         5.119636         0.657884        -1.021693
 H         3.032108         0.596470        -2.760139
