19
Iteration:  1340charge 0 multiplicity 1
 C        -0.095618         0.113821         0.423827
 C         1.303134        -0.075577        -0.211277
 C         1.746358        -1.474913        -0.806586
 C         3.149357        -1.038872        -1.070263
 C         3.631382        -0.253413         0.234244
 C         3.995867         0.901837        -0.743459
 C         2.886337         0.449936        -1.695749
 O         1.501405         0.868134        -1.357916
 O         2.363659         0.118524         0.800174
 H        -0.380117        -0.532321         1.185192
 H        -0.408959         0.987261         0.892316
 H        -0.847670        -0.187420        -0.351854
 H         1.603884        -2.350536        -0.145559
 H         1.381919        -1.817057        -1.832711
 H         3.845064        -1.631657        -1.644387
 H         4.203861        -0.711696         1.062978
 H         3.912248         1.928506        -0.386444
 H         5.094333         0.701372        -1.073172
 H         2.959703         0.621759        -2.816923
