19
Iteration:   968charge 0 multiplicity 1
 C        -0.059650         0.128305         0.349621
 C         1.349761        -0.110974        -0.089251
 C         1.711002        -1.492716        -0.835431
 C         3.060618        -0.947383        -1.186533
 C         3.585336        -0.235283         0.220768
 C         3.956375         0.949132        -0.742250
 C         2.892221         0.387534        -1.739071
 O         1.533382         0.847637        -1.317991
 O         2.418932         0.061832         0.905220
 H        -0.221933        -0.460401         1.301539
 H        -0.349707         1.209729         0.623620
 H        -0.714533        -0.224724        -0.481147
 H         1.758242        -2.312353        -0.073188
 H         1.006590        -1.829895        -1.577656
 H         3.835882        -1.544148        -1.674666
 H         4.232213        -0.708626         0.933182
 H         3.847805         2.015283        -0.541249
 H         5.042175         0.755151        -1.296375
 H         2.986264         0.668543        -2.804016
