19
Iteration:   117charge 0 multiplicity 1
 C        -0.013519         0.153152         0.414049
 C         1.364575        -0.097421        -0.143738
 C         1.674812        -1.476096        -0.841770
 C         3.090033        -0.981405        -1.160708
 C         3.577203        -0.218316         0.186130
 C         3.880234         0.974711        -0.751284
 C         2.887760         0.433922        -1.787541
 O         1.631998         0.785895        -1.330982
 O         2.337039         0.008176         0.940725
 H        -0.289871        -0.714955         1.025913
 H         0.085864         1.012821         1.152920
 H        -0.849755         0.337370        -0.384768
 H         1.760683        -2.353851        -0.125287
 H         1.005325        -1.591050        -1.739658
 H         3.868855        -1.590875        -1.587108
 H         4.333110        -0.583168         0.883169
 H         3.702051         1.899258        -0.284097
 H         4.925873         1.007932        -1.212973
 H         3.027306         0.666894        -2.928128
