19
Iteration:  2678charge 0 multiplicity 1
 C        -0.077754         0.118968         0.336643
 C         1.271229        -0.142836        -0.166363
 C         1.732061        -1.581101        -0.681830
 C         3.099277        -1.043212        -1.065955
 C         3.563824        -0.182089         0.192469
 C         3.950838         0.958906        -0.719168
 C         3.009859         0.507357        -1.766335
 O         1.625268         0.783374        -1.411530
 O         2.264574         0.150972         0.856863
 H        -0.064011        -0.110992         1.409022
 H         0.068675         1.183561         0.168687
 H        -0.895235        -0.144123        -0.352490
 H         1.699437        -2.259386         0.028482
 H         1.172520        -1.836916        -1.572905
 H         3.792994        -1.780251        -1.293215
 H         4.213162        -0.729286         0.903547
 H         3.776774         2.008180        -0.404453
 H         4.931011         0.826611        -1.145113
 H         3.079755         0.524174        -2.885735
