19
Iteration:  4681
 C        -0.186900         0.193569         0.274171
 C         1.280987        -0.154630        -0.160839
 C         1.827891        -1.586882        -0.783102
 C         3.125847        -0.999419        -0.993043
 C         3.572049        -0.138330         0.279427
 C         3.967826         0.959278        -0.795766
 C         2.995945         0.352880        -1.736726
 O         1.613388         0.733243        -1.331028
 O         2.273870         0.210582         0.836420
 H        -0.491108        -0.429533         1.103431
 H        -0.141764         1.231102         0.564312
 H        -0.789082        -0.051054        -0.564999
 H         1.719650        -2.469153        -0.119419
 H         1.106047        -1.838376        -1.706067
 H         3.842226        -1.526742        -1.578553
 H         4.133418        -0.508466         1.143474
 H         3.897404         2.000233        -0.590081
 H         5.004836         0.791124        -1.053620
 H         3.125641         0.445522        -2.755709
