19
Iteration:  4200
 C        -0.082762         0.150784         0.228516
 C         1.301965        -0.084471        -0.206920
 C         1.731126        -1.534065        -0.670146
 C         3.188519        -1.032783        -1.059581
 C         3.551712        -0.176898         0.174783
 C         3.977117         0.986845        -0.737282
 C         2.914654         0.342112        -1.746523
 O         1.643261         0.747902        -1.285191
 O         2.254043         0.158950         0.846378
 H        -0.490676        -0.629902         0.898940
 H        -0.158794         1.160943         0.756641
 H        -0.787895         0.326055        -0.654531
 H         1.759797        -2.251919         0.197464
 H         1.198108        -1.849851        -1.673181
 H         4.028126        -1.761297        -1.281561
 H         4.152742        -0.718242         0.902880
 H         3.622189         2.005491        -0.370099
 H         5.001362         1.063131        -1.218690
 H         2.938488         0.588530        -2.793939
