19
Iteration:  2846
 C        -0.118071         0.223968         0.307441
 C         1.315916        -0.103917        -0.281116
 C         1.766838        -1.507399        -0.642935
 C         3.196000        -1.061447        -1.099559
 C         3.537153        -0.215061         0.154822
 C         3.919124         0.951019        -0.732042
 C         2.912521         0.403228        -1.742208
 O         1.626880         0.739113        -1.328082
 O         2.277890         0.151774         0.888976
 H        -0.332505        -0.558378         1.053989
 H        -0.027060         1.255094         0.764486
 H        -0.819948         0.165489        -0.563389
 H         1.670903        -2.303461         0.214154
 H         1.340189        -1.906104        -1.566126
 H         3.976681        -1.869881        -1.586111
 H         4.266220        -0.608454         0.914467
 H         3.645200         1.958550        -0.332988
 H         5.004900         0.933600        -1.107367
 H         3.050140         0.656776        -2.802779
