19
Iteration:  1744charge 0 multiplicity 1
 C        -0.113565         0.142814         0.288989
 C         1.296958        -0.064278        -0.157937
 C         1.768943        -1.454277        -0.699762
 C         3.150602        -1.040576        -1.041823
 C         3.522607        -0.215903         0.157361
 C         3.961815         0.915995        -0.843728
 C         2.928474         0.476093        -1.772093
 O         1.605962         0.824013        -1.232337
 O         2.310712         0.018503         0.851838
 H        -0.080231        -0.452478         1.162132
 H        -0.173423         1.199500         0.460031
 H        -0.770836        -0.326962        -0.556035
 H         1.587676        -2.261806        -0.067944
 H         1.156760        -1.766727        -1.480705
 H         3.924811        -1.673466        -1.456968
 H         4.254101        -0.402370         0.964821
 H         3.955379         1.928429        -0.596787
 H         4.963153         0.702989        -1.113317
 H         2.930974         0.716031        -2.859225
