19
Iteration:  1097charge 0 multiplicity 1
 C        -0.064229         0.139785         0.320599
 C         1.288594        -0.080615        -0.180390
 C         1.641522        -1.469642        -0.808224
 C         3.098443        -1.031825        -1.094992
 C         3.673927        -0.144741         0.180121
 C         4.061155         1.018011        -0.728330
 C         2.846397         0.435970        -1.687476
 O         1.528955         0.743590        -1.285463
 O         2.413350         0.044706         0.820659
 H        -0.156828        -0.863422         0.825934
 H        -0.235443         0.986991         1.025027
 H        -0.926122         0.126339        -0.325018
 H         1.559465        -2.291243        -0.055914
 H         0.942107        -1.569943        -1.629732
 H         3.675895        -1.757867        -1.679652
 H         4.365806        -0.533686         0.952697
 H         3.985125         1.972021        -0.324528
 H         4.971046         0.685815        -1.085866
 H         2.803297         0.492886        -2.746464
