19
Iteration:  2398
 C        -0.149093         0.132035         0.303173
 C         1.315847        -0.117824        -0.237964
 C         1.769758        -1.516862        -0.697822
 C         3.080713        -1.030283        -1.013640
 C         3.618585        -0.140194         0.205910
 C         3.978487         0.967261        -0.777862
 C         2.964735         0.387202        -1.784700
 O         1.628505         0.851264        -1.383889
 O         2.273990         0.060696         0.888182
 H        -0.412939        -0.710304         1.109770
 H        -0.072852         1.121843         0.968393
 H        -0.824761         0.235604        -0.653625
 H         1.770487        -1.988707         0.288493
 H         1.069121        -2.186332        -1.257815
 H         3.741311        -1.661466        -1.584042
 H         4.123269        -0.607915         1.065024
 H         3.810340         2.046886        -0.483164
 H         5.009003         0.790024        -1.090068
 H         3.007394         0.456991        -2.865742
