19
Iteration:  1305charge 0 multiplicity 1
 C        -0.043879         0.150308         0.351619
 C         1.317264        -0.129150        -0.163572
 C         1.688771        -1.541034        -0.759308
 C         3.087774        -1.060022        -1.155552
 C         3.547218        -0.179884         0.201067
 C         3.947760         0.979223        -0.734314
 C         2.934313         0.448534        -1.784241
 O         1.626274         0.814774        -1.210037
 O         2.344898         0.091649         0.811258
 H        -0.307328        -0.690273         0.829439
 H        -0.145336         1.070506         0.791023
 H        -0.530004         0.201634        -0.578372
 H         1.737795        -2.298116         0.047151
 H         1.010034        -1.792566        -1.586708
 H         3.747113        -1.800002        -1.684501
 H         4.294183        -0.501732         0.921584
 H         3.607359         2.037798        -0.671891
 H         5.078519         0.747135        -0.818817
 H         2.827271         0.769323        -2.796979
