19
Iteration:  2116
 C        -0.103487         0.081507         0.350984
 C         1.275581        -0.067370        -0.262210
 C         1.730460        -1.405671        -0.823457
 C         3.176708        -1.037514        -1.024620
 C         3.617505        -0.236366         0.196476
 C         3.996453         0.904695        -0.724924
 C         2.947507         0.317492        -1.702405
 O         1.601061         0.844366        -1.283355
 O         2.244675         0.172881         0.780252
 H        -0.159618        -0.371846         1.362579
 H        -0.295800         1.125770         0.598355
 H        -0.946188        -0.260084        -0.103235
 H         1.753910        -2.183733        -0.003746
 H         1.158393        -1.857144        -1.647471
 H         3.786535        -1.750380        -1.568057
 H         4.243332        -0.604248         1.029191
 H         3.859380         1.991245        -0.334513
 H         5.073862         0.802069        -1.067296
 H         2.912370         0.418000        -2.803102
