19
Iteration:  1674charge 0 multiplicity 1
 C        -0.012486         0.200057         0.418759
 C         1.300902        -0.177998        -0.270546
 C         1.688895        -1.527602        -0.808343
 C         3.101812        -0.970042        -1.066204
 C         3.523176        -0.122592         0.219266
 C         3.977776         0.959074        -0.781120
 C         3.026447         0.424199        -1.739525
 O         1.591262         0.761922        -1.352901
 O         2.289101         0.054190         0.897389
 H        -0.251344        -0.576684         1.219835
 H        -0.007412         1.213152         0.860974
 H        -0.894695         0.094662        -0.121362
 H         1.433758        -2.409482        -0.228418
 H         1.051030        -1.935308        -1.616788
 H         3.823941        -1.664687        -1.579381
 H         4.215209        -0.623297         0.873962
 H         3.809392         2.041540        -0.442228
 H         5.063322         1.012966        -1.045797
 H         3.000909         0.628763        -2.765982
