19
Iteration:  1286charge 0 multiplicity 1
 C        -0.063374         0.185174         0.329010
 C         1.286280        -0.101780        -0.216246
 C         1.788914        -1.535553        -0.750685
 C         3.135959        -1.004142        -1.088178
 C         3.599767        -0.242744         0.102533
 C         3.933609         0.993258        -0.803380
 C         2.888314         0.393241        -1.717959
 O         1.630589         0.891374        -1.238883
 O         2.272814         0.006993         0.882120
 H        -0.409023        -0.584931         1.038654
 H         0.002622         1.131944         0.876584
 H        -0.986060         0.486191        -0.344461
 H         1.833092        -2.201811         0.136815
 H         1.284948        -2.015914        -1.656409
 H         3.974026        -1.520872        -1.546591
 H         4.186537        -0.732357         0.894317
 H         3.636131         1.817397        -0.220980
 H         4.886417         0.843128        -1.308367
 H         2.911224         0.416707        -2.885748
