19
Iteration:  2437
 C        -0.080661         0.204131         0.344439
 C         1.307060        -0.158524        -0.131427
 C         1.697900        -1.550279        -0.863004
 C         3.146322        -1.029198        -1.109553
 C         3.581846        -0.171698         0.293211
 C         3.944911         1.004566        -0.737560
 C         2.926173         0.299117        -1.800241
 O         1.626402         0.705142        -1.341504
 O         2.272732         0.239156         0.916305
 H        -0.510406        -0.236196         1.189147
 H        -0.067921         1.161127         0.687506
 H        -0.662509         0.210067        -0.551677
 H         1.962160        -2.471953        -0.293704
 H         1.153737        -1.598406        -1.789994
 H         3.854920        -1.831540        -1.451594
 H         4.420325        -0.498662         0.925378
 H         3.621904         1.928565        -0.286040
 H         4.993464         0.925643        -1.151229
 H         3.169169         0.386329        -2.885110
