19
Iteration:  1384charge 0 multiplicity 1
 C        -0.114465         0.178239         0.395868
 C         1.263498        -0.075304        -0.153234
 C         1.744636        -1.465785        -0.836533
 C         3.107776        -0.993981        -1.094893
 C         3.600744        -0.206072         0.193183
 C         3.941895         0.975212        -0.735518
 C         2.977814         0.400252        -1.809218
 O         1.616839         0.795525        -1.314632
 O         2.346331        -0.025874         0.901684
 H        -0.350211        -0.243602         1.325996
 H        -0.318589         1.213971         0.525676
 H        -0.856466        -0.170667        -0.365955
 H         1.649799        -2.327283        -0.141379
 H         1.048985        -1.672386        -1.720049
 H         3.815974        -1.643072        -1.568801
 H         4.362566        -0.431071         0.974816
 H         3.556169         1.924916        -0.327483
 H         5.052996         0.948511        -1.133871
 H         2.976826         0.592535        -2.939246
