19
Iteration:  2811charge 0 multiplicity 1
 C        -0.026024         0.187603         0.334934
 C         1.243985        -0.126484        -0.267716
 C         1.669536        -1.581366        -0.767279
 C         3.147491        -1.098622        -1.040196
 C         3.532147        -0.079273         0.228404
 C         3.952194         0.970749        -0.753502
 C         2.974579         0.396504        -1.735716
 O         1.616243         0.692927        -1.369897
 O         2.323005         0.199542         0.932500
 H        -0.463123        -0.650620         0.903278
 H         0.044069         1.065920         1.055007
 H        -0.790196         0.490396        -0.372104
 H         1.555703        -2.468387        -0.154648
 H         1.310512        -1.741546        -1.788617
 H         3.913373        -1.706353        -1.681262
 H         4.191708        -0.519828         1.009055
 H         3.901684         1.995424        -0.344979
 H         4.936729         0.786890        -1.234087
 H         3.050858         0.699782        -2.841845
