19
Iteration:  3363
 C        -0.032582         0.154093         0.291598
 C         1.274018        -0.030709        -0.230625
 C         1.656707        -1.556567        -0.749276
 C         3.168545        -1.057290        -1.001471
 C         3.575954        -0.165829         0.209451
 C         3.945383         1.048844        -0.713829
 C         2.970022         0.352602        -1.716546
 O         1.613766         0.702910        -1.430283
 O         2.314260         0.123543         0.881785
 H        -0.204781        -0.269975         1.264892
 H        -0.294516         1.149134         0.628485
 H        -0.936462        -0.068735        -0.340765
 H         1.463614        -2.349709        -0.070012
 H         1.334654        -1.808628        -1.716508
 H         3.895671        -1.652017        -1.441953
 H         4.191487        -0.499909         1.037213
 H         3.605940         1.939591        -0.257561
 H         4.960833         1.082054        -1.045210
 H         3.048722         0.571752        -2.822130
