19
Iteration:  1854
 C        -0.098904         0.135608         0.290224
 C         1.305129        -0.070802        -0.120223
 C         1.706766        -1.483820        -0.809900
 C         3.097101        -0.998515        -1.107186
 C         3.576918        -0.142573         0.266144
 C         3.987002         0.949727        -0.822623
 C         2.969206         0.301212        -1.789017
 O         1.614624         0.776550        -1.236201
 O         2.342424         0.136889         0.915727
 H        -0.468768        -0.743714         0.950245
 H        -0.500812         1.059741         0.744137
 H        -0.782891        -0.029078        -0.712318
 H         1.619271        -2.413895        -0.271204
 H         1.040814        -1.466250        -1.686719
 H         3.935433        -1.660468        -1.568571
 H         4.312564        -0.544658         1.017681
 H         3.815975         1.983985        -0.603269
 H         4.989347         0.722452        -1.175319
 H         2.820257         0.451818        -2.910411
