19
Iteration:  3467
 C        -0.118233         0.138097         0.337580
 C         1.264828        -0.091470        -0.251225
 C         1.738661        -1.510803        -0.758619
 C         3.208609        -1.051680        -1.059893
 C         3.567378        -0.128497         0.249234
 C         3.974371         0.992819        -0.717119
 C         2.984165         0.330072        -1.725441
 O         1.596114         0.740508        -1.336113
 O         2.291670         0.150540         0.797374
 H        -0.306744        -0.571825         1.141589
 H        -0.343131         1.174537         0.623508
 H        -0.876720         0.108686        -0.393861
 H         1.597674        -2.181214         0.139729
 H         1.043140        -1.724134        -1.631370
 H         3.848930        -1.842765        -1.606789
 H         4.177556        -0.637821         1.022616
 H         3.619018         2.006521        -0.396200
 H         5.065901         1.041127        -0.891481
 H         3.142717         0.488786        -2.750016
