19
Iteration:  1376
 C        -0.111541         0.175296         0.425866
 C         1.345994        -0.090030        -0.145177
 C         1.687496        -1.543144        -0.819650
 C         3.085741        -0.968442        -1.136577
 C         3.475423        -0.236868         0.208037
 C         4.019941         1.042029        -0.800899
 C         2.989633         0.432885        -1.793719
 O         1.639581         0.781617        -1.316223
 O         2.298705         0.018401         0.918799
 H        -0.100196        -0.495883         1.379597
 H        -0.305865         1.308463         0.494636
 H        -0.769689        -0.236720        -0.362221
 H         1.653565        -2.311424        -0.024440
 H         1.256221        -1.813317        -1.791193
 H         3.789805        -1.640568        -1.606509
 H         4.243582        -0.761032         0.837639
 H         3.682497         1.993502        -0.397056
 H         5.054119         1.064335        -0.978950
 H         3.177109         0.612421        -2.908782
