19
Iteration:  4613charge 0 multiplicity 1
 C        -0.043885         0.149145         0.294222
 C         1.351142        -0.139734        -0.239120
 C         1.723285        -1.512252        -0.724766
 C         3.167608        -1.031833        -1.006800
 C         3.520729        -0.206300         0.305461
 C         4.003754         1.001196        -0.738493
 C         2.970018         0.430384        -1.656925
 O         1.551391         0.663728        -1.346370
 O         2.241579         0.223133         0.723778
 H        -0.586819        -0.615311         0.886816
 H         0.015781         1.073839         0.842429
 H        -0.773621         0.250270        -0.595554
 H         1.578143        -2.421634        -0.004838
 H         1.273261        -1.773032        -1.675252
 H         3.916257        -1.757117        -1.470146
 H         4.187871        -0.444103         1.150797
 H         3.904533         2.085773        -0.462543
 H         4.991869         0.916318        -1.252470
 H         3.097740         0.469550        -2.725885
