19
Iteration:  1857charge 0 multiplicity 1
 C        -0.096735         0.134571         0.293375
 C         1.337618        -0.076486        -0.172633
 C         1.679620        -1.449771        -0.781189
 C         3.119315        -0.992489        -1.071641
 C         3.571132        -0.167050         0.275662
 C         3.998639         0.942544        -0.832060
 C         2.949416         0.312471        -1.790746
 O         1.605371         0.803428        -1.225348
 O         2.332038         0.108064         0.879806
 H        -0.441253        -0.783464         0.948840
 H        -0.491451         1.117256         0.746385
 H        -0.665266        -0.079609        -0.620650
 H         1.681499        -2.375673        -0.225853
 H         1.118648        -1.657528        -1.670131
 H         3.891250        -1.617145        -1.588337
 H         4.315624        -0.429419         1.046973
 H         3.752343         1.968369        -0.537536
 H         4.960589         0.733927        -1.153431
 H         2.782827         0.359753        -2.923158
