19
Iteration:   323
 C        -0.072303         0.119191         0.432463
 C         1.332095        -0.077053        -0.207572
 C         1.719981        -1.548258        -0.732390
 C         3.129723        -1.051235        -1.152895
 C         3.578129        -0.259659         0.108995
 C         3.966703         0.949144        -0.776125
 C         2.843203         0.446673        -1.722156
 O         1.634180         0.936911        -1.227072
 O         2.306723         0.064601         0.784010
 H        -0.316025        -0.829085         0.960140
 H        -0.127750         0.968354         1.172219
 H        -0.898732         0.217564        -0.397505
 H         1.719990        -2.051127         0.302413
 H         1.266622        -2.255308        -1.533673
 H         3.889850        -1.624209        -1.647548
 H         4.252324        -0.715770         0.867675
 H         3.916636         2.000281        -0.471095
 H         5.030973         0.889223        -1.302715
 H         2.848011         0.697007        -2.730942
