19
Iteration:  4190charge 0 multiplicity 1
 C        -0.093540         0.160633         0.246806
 C         1.338623        -0.156413        -0.197123
 C         1.718457        -1.485165        -0.712413
 C         3.137169        -1.034178        -0.975209
 C         3.594181        -0.150507         0.197858
 C         3.964504         1.005369        -0.744873
 C         2.977137         0.349765        -1.733428
 O         1.575154         0.739160        -1.283146
 O         2.264531         0.140017         0.776216
 H        -0.521190        -0.535551         0.998090
 H         0.048892         1.181751         0.725066
 H        -0.735236         0.181665        -0.724972
 H         1.720109        -2.312662         0.067514
 H         1.092945        -1.836319        -1.640650
 H         3.801172        -1.571184        -1.685612
 H         4.251044        -0.438581         1.038832
 H         3.794141         2.070197        -0.382595
 H         5.069476         0.798927        -0.912754
 H         3.010870         0.381402        -2.814711
