19
Iteration:  3757charge 0 multiplicity 1
 C        -0.081523         0.191506         0.257290
 C         1.333709        -0.213159        -0.138139
 C         1.755658        -1.580418        -0.745678
 C         3.112796        -1.015052        -0.992248
 C         3.540800        -0.118822         0.187881
 C         3.948950         0.986316        -0.719384
 C         2.963881         0.417685        -1.680006
 O         1.604981         0.777957        -1.382169
 O         2.270709         0.106340         0.829362
 H        -0.454821        -0.299635         1.153760
 H        -0.050993         1.292680         0.402257
 H        -0.729656        -0.027670        -0.549189
 H         1.836971        -2.460476        -0.145792
 H         1.078481        -1.831718        -1.516282
 H         3.793285        -1.530317        -1.689592
 H         4.117606        -0.475646         1.000749
 H         3.923210         2.087251        -0.471652
 H         5.012209         0.781488        -1.054446
 H         3.176295         0.557999        -2.783189
