19
Iteration:   378charge 0 multiplicity 1
 C        -0.047409         0.228169         0.467293
 C         1.302484        -0.169278        -0.264657
 C         1.762973        -1.511913        -0.837288
 C         3.160858        -0.992456        -1.092758
 C         3.561100        -0.185929         0.180696
 C         3.974908         0.966028        -0.757392
 C         2.862053         0.449907        -1.772866
 O         1.527878         0.840502        -1.226166
 O         2.329709        -0.025564         0.823777
 H        -0.230862        -0.295838         1.436701
 H         0.112135         1.258145         0.855631
 H        -1.006928         0.117408        -0.123097
 H         1.743781        -2.503263        -0.274565
 H         1.328973        -1.837504        -1.850123
 H         3.890809        -1.713751        -1.476924
 H         4.345521        -0.538835         0.852017
 H         3.956562         1.959294        -0.346624
 H         4.950661         0.726362        -1.374696
 H         2.867169         0.635038        -2.799775
