19
Iteration:   294charge 0 multiplicity 1
 C        -0.080855         0.095676         0.410391
 C         1.331323        -0.132125        -0.083819
 C         1.633145        -1.449723        -0.900606
 C         3.109055        -0.948002        -1.119110
 C         3.542429        -0.163557         0.182641
 C         4.093237         0.918476        -0.861016
 C         2.934467         0.450058        -1.749008
 O         1.529949         0.740841        -1.223305
 O         2.370940         0.091576         0.931736
 H        -0.333988        -0.816906         1.054715
 H        -0.192890         1.084720         0.862189
 H        -0.725836         0.143742        -0.457047
 H         1.479004        -2.313746        -0.288604
 H         1.188131        -1.479459        -1.892707
 H         3.926163        -1.603602        -1.537537
 H         4.169648        -0.692045         0.871025
 H         4.127768         1.990733        -0.834443
 H         5.011226         0.551831        -1.258064
 H         2.790045         0.827877        -2.861062
