19
Iteration:  4574
 C        -0.103856         0.148999         0.306324
 C         1.235733        -0.082094        -0.217590
 C         1.733886        -1.443854        -0.672959
 C         3.195807        -1.028661        -1.060915
 C         3.513667        -0.171132         0.233393
 C         3.964030         1.025750        -0.776504
 C         3.067585         0.328440        -1.747307
 O         1.654865         0.706606        -1.340997
 O         2.228920         0.121439         0.837993
 H        -0.215020        -0.527163         1.163737
 H        -0.382793         1.214373         0.489746
 H        -0.738557        -0.226447        -0.477840
 H         1.799603        -2.183937         0.088597
 H         1.080590        -1.735217        -1.653508
 H         3.882956        -1.781103        -1.361417
 H         4.084721        -0.667264         1.028210
 H         3.534682         1.967625        -0.505977
 H         4.991963         0.911246        -1.148733
 H         3.147727         0.711229        -2.812263
