19
Iteration:  2703
 C        -0.062242         0.200296         0.389573
 C         1.284413        -0.016033        -0.188564
 C         1.746337        -1.493720        -0.739639
 C         3.175584        -1.024116        -1.079133
 C         3.538637        -0.157931         0.234780
 C         3.908178         1.006513        -0.702587
 C         2.985569         0.315557        -1.774473
 O         1.645752         0.755783        -1.374107
 O         2.235729         0.036262         0.797438
 H         0.111040        -0.133125         1.388544
 H        -0.343902         1.246013         0.240157
 H        -0.754914        -0.394520        -0.178099
 H         1.711386        -2.320123         0.004120
 H         1.166116        -1.743488        -1.609357
 H         3.950370        -1.697048        -1.471725
 H         4.195318        -0.553716         0.997480
 H         3.588179         2.044478        -0.538740
 H         5.002288         0.931613        -0.915948
 H         2.958508         0.241751        -2.836414
