19
Iteration:  2200
 C        -0.060872         0.208265         0.273810
 C         1.362301        -0.175603        -0.178428
 C         1.678749        -1.473782        -0.729806
 C         3.137852        -1.033573        -1.117471
 C         3.524236        -0.170246         0.207354
 C         4.022499         1.030020        -0.704129
 C         2.924808         0.370655        -1.686197
 O         1.581988         0.643284        -1.321697
 O         2.302660         0.164081         0.846856
 H        -0.438158        -0.571028         0.940319
 H        -0.005314         1.150721         0.797085
 H        -0.705221         0.417579        -0.660620
 H         1.781079        -2.336142        -0.095941
 H         1.099258        -1.458895        -1.627664
 H         3.654539        -1.726734        -1.810114
 H         4.234111        -0.581549         0.930570
 H         3.781614         1.969197        -0.331948
 H         4.987397         0.793138        -1.080820
 H         2.988746         0.614068        -2.705624
