19
Iteration:  1288charge 0 multiplicity 1
 C        -0.052068         0.179344         0.314262
 C         1.309927        -0.087494        -0.209636
 C         1.791481        -1.559453        -0.752288
 C         3.131574        -1.025661        -1.106967
 C         3.577606        -0.233186         0.107733
 C         3.922986         0.994312        -0.803302
 C         2.898081         0.382031        -1.722760
 O         1.625762         0.911545        -1.224227
 O         2.274018         0.013671         0.874378
 H        -0.480146        -0.612646         1.101850
 H        -0.025868         1.170163         0.953387
 H        -0.989530         0.459236        -0.360435
 H         1.833465        -2.225111         0.113346
 H         1.247993        -2.034447        -1.608168
 H         3.977662        -1.538263        -1.504463
 H         4.190539        -0.712437         0.906363
 H         3.686270         1.838863        -0.186223
 H         4.834344         0.891261        -1.325976
 H         2.982131         0.424252        -2.881357
