19
Iteration:   531
 C        -0.120204         0.195462         0.431507
 C         1.332470        -0.120564        -0.158812
 C         1.749115        -1.555560        -0.741676
 C         3.104826        -0.974815        -1.248409
 C         3.549100        -0.239546         0.074003
 C         4.005374         0.942953        -0.730878
 C         2.908881         0.492581        -1.715419
 O         1.605071         0.806770        -1.266831
 O         2.325952         0.051555         0.867319
 H        -0.637414        -0.588241         1.099426
 H        -0.251801         1.124735         0.989161
 H        -0.814489         0.162579        -0.384003
 H         1.846895        -2.330931         0.039483
 H         1.053325        -1.939535        -1.565812
 H         3.879041        -1.590688        -1.711523
 H         4.206202        -0.795367         0.765258
 H         4.002825         1.910601        -0.264219
 H         5.067598         0.897058        -1.222339
 H         3.004831         0.792636        -2.741091
