19
Iteration:  3606charge 0 multiplicity 1
 C        -0.074921         0.138584         0.295951
 C         1.396572        -0.119845        -0.219214
 C         1.747599        -1.464663        -0.714450
 C         3.165839        -1.006330        -0.998687
 C         3.559861        -0.211841         0.262303
 C         3.884871         0.988667        -0.725908
 C         2.950971         0.392424        -1.738252
 O         1.608391         0.720201        -1.422114
 O         2.261927         0.147105         0.822790
 H        -0.446004        -0.724292         0.958525
 H        -0.155252         1.080149         0.942792
 H        -0.804675         0.256643        -0.519015
 H         1.604278        -2.159374         0.073680
 H         1.154529        -1.527077        -1.602008
 H         3.960302        -1.738629        -1.364086
 H         4.288323        -0.639807         0.960841
 H         3.667896         1.995144        -0.326193
 H         4.866138         0.810001        -1.116215
 H         2.978824         0.427715        -2.828298
