19
Iteration:  3207charge 0 multiplicity 1
 C        -0.097404         0.151749         0.283604
 C         1.318678        -0.120008        -0.270378
 C         1.770626        -1.488319        -0.677839
 C         3.102669        -1.023053        -1.064600
 C         3.569545        -0.154091         0.212560
 C         3.920744         1.015051        -0.726354
 C         2.964080         0.327025        -1.756604
 O         1.656543         0.734492        -1.352557
 O         2.295622         0.118247         0.877880
 H        -0.609786        -0.673578         0.806584
 H        -0.197328         1.123542         0.848619
 H        -0.797340         0.364925        -0.517821
 H         1.897603        -2.037626         0.233075
 H         1.020909        -1.909228        -1.267451
 H         3.599028        -1.731112        -1.779217
 H         4.079679        -0.502359         1.134553
 H         3.651408         2.021698        -0.352243
 H         4.941254         1.018947        -1.066253
 H         3.205120         0.439493        -2.915707
