19
Iteration:  1917
 C        -0.024174         0.209019         0.373903
 C         1.310906        -0.145040        -0.207446
 C         1.705737        -1.491724        -0.792018
 C         3.191813        -1.050105        -1.038539
 C         3.587586        -0.272062         0.200775
 C         3.933841         0.988024        -0.655075
 C         2.882018         0.419627        -1.713076
 O         1.513994         0.712106        -1.395543
 O         2.324693         0.173529         0.825907
 H        -0.134455        -0.188902         1.314569
 H        -0.056954         1.242403         0.442666
 H        -0.861177        -0.081970        -0.320205
 H         1.680505        -2.465252        -0.220751
 H         1.252065        -1.364445        -1.812548
 H         3.921405        -1.756437        -1.507893
 H         4.289803        -0.706916         0.933345
 H         3.989885         2.000818        -0.220711
 H         4.955874         0.978474        -1.232951
 H         3.092646         0.537901        -2.747542
