19
Iteration:   828charge 0 multiplicity 1
 C        -0.061531         0.053394         0.381025
 C         1.324905        -0.140227        -0.157388
 C         1.632312        -1.481484        -0.806637
 C         3.047495        -1.018435        -1.148699
 C         3.554275        -0.236506         0.143041
 C         4.038201         0.987840        -0.784694
 C         2.943515         0.487553        -1.794271
 O         1.605010         0.833008        -1.256471
 O         2.370240         0.098548         0.918432
 H         0.016187        -0.506254         1.262183
 H        -0.259803         1.108936         0.745554
 H        -0.944432        -0.310710        -0.280316
 H         1.613381        -2.319079        -0.037989
 H         0.863741        -1.667596        -1.590011
 H         3.703067        -1.740096        -1.646472
 H         4.321248        -0.577584         0.816395
 H         3.741400         1.847067        -0.254341
 H         5.072308         1.017005        -1.102653
 H         3.128337         0.681840        -2.955046
