19
Iteration:   462charge 0 multiplicity 1
 C        -0.035555         0.069371         0.454984
 C         1.276071        -0.174876        -0.172120
 C         1.696279        -1.482729        -0.773249
 C         3.080055        -0.993900        -1.214505
 C         3.440383        -0.159392         0.088932
 C         4.026748         0.938160        -0.750800
 C         2.963399         0.491951        -1.796378
 O         1.651359         0.806298        -1.194604
 O         2.292359         0.071149         0.851966
 H        -0.269615        -0.468986         1.310192
 H         0.150963         1.133718         0.759606
 H        -0.863837        -0.030715        -0.390276
 H         1.710556        -2.271684         0.010712
 H         1.016474        -1.885107        -1.527706
 H         3.900188        -1.571641        -1.641061
 H         4.337541        -0.580298         0.727560
 H         4.027006         1.973452        -0.340314
 H         5.108730         0.877686        -0.967117
 H         3.016797         0.781653        -2.964765
