19
Iteration:  1386
 C        -0.108826         0.177131         0.374066
 C         1.258059        -0.082718        -0.165091
 C         1.743907        -1.441670        -0.835453
 C         3.123016        -1.005384        -1.091226
 C         3.631149        -0.195456         0.181794
 C         3.923490         0.959250        -0.721828
 C         2.965521         0.389998        -1.794348
 O         1.609473         0.801723        -1.310165
 O         2.352754        -0.030232         0.893846
 H        -0.418384        -0.233637         1.387350
 H        -0.312247         1.275924         0.555343
 H        -0.880079        -0.171319        -0.345070
 H         1.667700        -2.331545        -0.170210
 H         1.033471        -1.626861        -1.676118
 H         3.836275        -1.661177        -1.539555
 H         4.383053        -0.401605         0.991797
 H         3.589595         1.931157        -0.337508
 H         4.948495         0.937964        -1.108108
 H         2.933359         0.579690        -2.934806
