19
Iteration:  4495
 C        -0.030903         0.116507         0.281114
 C         1.288792        -0.040932        -0.258764
 C         1.743958        -1.484506        -0.731081
 C         3.118392        -1.048366        -0.994898
 C         3.524579        -0.192655         0.205950
 C         3.943207         0.962518        -0.726890
 C         3.007165         0.397483        -1.704842
 O         1.626758         0.732308        -1.364377
 O         2.234481         0.183707         0.798783
 H        -0.063525        -0.363628         1.242354
 H        -0.107260         1.130767         0.527585
 H        -0.887405        -0.271922        -0.232382
 H         1.661016        -2.323050         0.095942
 H         1.170947        -2.081620        -1.617289
 H         3.935313        -1.822817        -1.228009
 H         4.158805        -0.446048         1.065508
 H         3.746903         1.958747        -0.335836
 H         4.975822         0.853963        -1.006562
 H         3.092098         0.455724        -2.780513
