19
Iteration:   564charge 0 multiplicity 1
 C        -0.024372         0.060871         0.395094
 C         1.344755        -0.065533        -0.225064
 C         1.623072        -1.479951        -0.837146
 C         3.077927        -1.026054        -1.096263
 C         3.587016        -0.197235         0.169427
 C         4.011536         0.951618        -0.807032
 C         2.868509         0.405371        -1.673281
 O         1.614475         0.903335        -1.219131
 O         2.339973         0.051862         0.854518
 H        -0.000451        -0.759724         1.238359
 H        -0.281069         1.052079         0.795386
 H        -0.712904        -0.170744        -0.374536
 H         1.425807        -2.309903        -0.124620
 H         0.992980        -1.592761        -1.795106
 H         3.777462        -1.664803        -1.658473
 H         4.392944        -0.665851         0.766384
 H         3.889069         1.976008        -0.467151
 H         5.028552         0.748772        -1.384249
 H         2.962782         0.581509        -2.729336
