19
Iteration:  1976
 C        -0.079673         0.107976         0.271142
 C         1.263217        -0.048991        -0.168858
 C         1.682456        -1.504667        -0.783958
 C         3.116003        -1.035549        -1.091461
 C         3.614561        -0.147163         0.198352
 C         4.012146         0.942746        -0.736867
 C         2.889210         0.361412        -1.697654
 O         1.595144         0.785561        -1.284668
 O         2.361671         0.138353         0.868880
 H        -0.440936        -0.690538         1.053181
 H        -0.357569         1.190686         0.579557
 H        -0.605584        -0.106885        -0.637616
 H         1.634821        -2.378110        -0.204135
 H         1.027803        -1.702479        -1.555207
 H         3.840204        -1.740602        -1.521160
 H         4.349673        -0.482971         0.945836
 H         3.927190         1.976115        -0.361359
 H         4.938458         0.693828        -1.182190
 H         3.010600         0.614223        -2.812021
