19
Iteration:  2728
 C        -0.096298         0.162785         0.292491
 C         1.231474        -0.168516        -0.126664
 C         1.670865        -1.559762        -0.826088
 C         3.142002        -1.067598        -0.999329
 C         3.636500        -0.153128         0.231208
 C         3.988775         0.984064        -0.720490
 C         2.903314         0.427177        -1.711096
 O         1.598736         0.771646        -1.384584
 O         2.343821         0.182727         0.861404
 H        -0.045850        -0.250339         1.319237
 H        -0.080982         1.258322         0.114501
 H        -0.836581        -0.244743        -0.414808
 H         1.591079        -2.552702        -0.101499
 H         1.096288        -1.726407        -1.800295
 H         3.946584        -1.771057        -1.467521
 H         4.360675        -0.585927         0.940239
 H         3.787781         2.017622        -0.421688
 H         5.026361         0.893006        -1.145163
 H         2.959286         0.456647        -2.792944
