19
Iteration:  4782
 C        -0.043851         0.175246         0.187067
 C         1.281168        -0.142504        -0.194749
 C         1.761619        -1.497107        -0.652701
 C         3.183353        -1.009351        -0.996000
 C         3.585993        -0.145309         0.195265
 C         3.998073         0.960035        -0.758934
 C         2.895122         0.362053        -1.731815
 O         1.588689         0.741307        -1.272424
 O         2.221253         0.148872         0.811975
 H        -0.364124        -0.469884         0.994637
 H        -0.065654         1.251553         0.402726
 H        -0.729750        -0.013862        -0.622959
 H         1.731392        -2.311930         0.124771
 H         1.363103        -1.909957        -1.741456
 H         3.880622        -1.780331        -1.399532
 H         4.249985        -0.431300         1.026877
 H         3.753535         2.026610        -0.610051
 H         5.038638         0.765402        -1.042856
 H         2.849329         0.457142        -2.802778
