19
Iteration:  3655charge 0 multiplicity 1
 C        -0.042124         0.162253         0.228905
 C         1.330391        -0.173979        -0.177170
 C         1.764806        -1.526139        -0.747930
 C         3.196742        -1.021138        -0.992870
 C         3.530698        -0.181949         0.185700
 C         3.994850         0.952370        -0.759059
 C         2.912370         0.402710        -1.681703
 O         1.519207         0.753936        -1.326258
 O         2.267618         0.172445         0.856865
 H        -0.374404        -0.543691         0.960996
 H        -0.044361         1.175885         0.590221
 H        -0.714476         0.175774        -0.644775
 H         1.606794        -2.370078         0.041142
 H         1.483911        -1.688107        -1.840888
 H         3.901160        -1.753907        -1.300202
 H         4.239229        -0.320343         1.062978
 H         3.773910         1.984878        -0.434301
 H         5.018323         0.852186        -1.260890
 H         2.871072         0.555931        -2.795156
