19
Iteration:  1664
 C        -0.074754         0.215657         0.448550
 C         1.230025        -0.119303        -0.231369
 C         1.709595        -1.574520        -0.791715
 C         3.121873        -1.019935        -1.145731
 C         3.465786        -0.163904         0.154827
 C         3.962372         1.048931        -0.732566
 C         3.043460         0.410257        -1.831429
 O         1.672477         0.729330        -1.263634
 O         2.269807         0.048940         0.879561
 H        -0.168472        -0.509023         1.297465
 H         0.128845         1.230807         0.846426
 H        -0.768558         0.236068        -0.351437
 H         1.747648        -2.219378         0.064332
 H         1.210867        -1.807157        -1.723079
 H         3.966527        -1.694895        -1.314950
 H         4.202479        -0.666743         0.785577
 H         3.625086         2.073201        -0.516038
 H         4.998572         0.878270        -1.007287
 H         3.083766         0.717132        -2.848069
