19
Iteration:   659
 C        -0.113957         0.158372         0.444116
 C         1.378720        -0.126792        -0.090197
 C         1.662809        -1.465805        -0.910165
 C         3.054565        -1.008596        -1.105256
 C         3.606781        -0.186243         0.121273
 C         3.992262         0.980122        -0.743863
 C         2.905971         0.408519        -1.769641
 O         1.585886         0.726910        -1.254918
 O         2.408030         0.087896         0.892289
 H        -0.441197        -0.657970         1.109721
 H        -0.455309         1.119787         0.820732
 H        -0.718426         0.236984        -0.504000
 H         1.508571        -2.424746        -0.454389
 H         1.092320        -1.292116        -1.833764
 H         3.845156        -1.596958        -1.536771
 H         4.234539        -0.910352         0.724256
 H         3.718683         2.030173        -0.447238
 H         5.054922         0.894471        -0.950294
 H         3.024799         0.707164        -2.937765
