19
Iteration:  3663
 C        -0.065796         0.147959         0.270560
 C         1.353675        -0.157513        -0.191628
 C         1.809843        -1.531955        -0.802390
 C         3.133699        -1.037053        -0.974424
 C         3.600765        -0.149813         0.267927
 C         3.981002         0.946812        -0.760863
 C         2.912783         0.420326        -1.738213
 O         1.507765         0.760453        -1.354117
 O         2.266123         0.190286         0.868365
 H        -0.565875        -0.452613         1.036207
 H        -0.209746         1.214176         0.584478
 H        -0.748455         0.003062        -0.654926
 H         1.587605        -2.428678        -0.166982
 H         1.176318        -1.856333        -1.689362
 H         3.896087        -1.647128        -1.444322
 H         4.403431        -0.520062         0.961482
 H         4.006421         1.929024        -0.349323
 H         4.998674         0.818108        -1.028880
 H         2.966408         0.328790        -2.789453
