19
Iteration:  3274
 C        -0.079272         0.099828         0.291839
 C         1.348013        -0.079126        -0.215173
 C         1.659021        -1.525437        -0.689962
 C         3.072003        -1.050013        -1.006557
 C         3.490597        -0.148921         0.232967
 C         3.983675         1.020965        -0.749993
 C         3.032857         0.338168        -1.751093
 O         1.657965         0.772677        -1.330408
 O         2.263264         0.163444         0.805879
 H        -0.038995        -0.577856         1.156683
 H        -0.098177         1.199852         0.572300
 H        -0.662482        -0.197678        -0.588565
 H         1.798895        -2.220702         0.112895
 H         1.272704        -1.890684        -1.599052
 H         3.900133        -1.751946        -1.466667
 H         4.111155        -0.752444         0.936974
 H         3.641639         2.023559        -0.465783
 H         4.998240         0.989751        -1.125506
 H         2.859487         0.599539        -2.948107
