19
Iteration:  1427
 C        -0.123455         0.158833         0.372310
 C         1.306487        -0.190219        -0.123263
 C         1.704032        -1.528244        -0.760409
 C         3.110569        -0.942979        -1.220938
 C         3.562160        -0.185411         0.154142
 C         4.003503         0.942101        -0.708054
 C         2.933363         0.444668        -1.768433
 O         1.618473         0.787888        -1.287748
 O         2.301364         0.106230         0.856533
 H        -0.310979        -0.411707         1.223202
 H        -0.095413         1.175257         0.664436
 H        -0.882729         0.062924        -0.413809
 H         2.008747        -2.324151        -0.045267
 H         0.990115        -1.901263        -1.570723
 H         3.819557        -1.690203        -1.543001
 H         4.337572        -0.688406         0.751212
 H         3.740496         1.886345        -0.194983
 H         5.183851         0.761643        -0.939137
 H         3.135437         0.701904        -2.841867
