19
Iteration:  1228charge 0 multiplicity 1
 C        -0.125113         0.084265         0.429210
 C         1.246637        -0.036161        -0.269317
 C         1.712674        -1.403853        -0.773251
 C         3.119804        -1.005344        -1.106797
 C         3.591783        -0.258914         0.195823
 C         3.991547         0.937718        -0.750132
 C         3.014093         0.373970        -1.748546
 O         1.534695         0.855617        -1.257125
 O         2.366009         0.050683         0.783968
 H        -0.031911        -0.514986         1.268128
 H        -0.074960         1.070286         0.775775
 H        -0.889192        -0.192607        -0.240476
 H         1.707063        -2.192140         0.020142
 H         1.119930        -1.759464        -1.633828
 H         3.840560        -1.750857        -1.549241
 H         4.142423        -0.758375         0.993049
 H         3.791492         1.986678        -0.339693
 H         5.060129         1.088122        -1.120923
 H         2.912222         0.486543        -2.794064
