19
Iteration:   331
 C        -0.011894         0.125614         0.400922
 C         1.355870        -0.058254        -0.203375
 C         1.745443        -1.557995        -0.715752
 C         3.064302        -1.039462        -1.168592
 C         3.534809        -0.319101         0.121380
 C         3.908187         0.926234        -0.770409
 C         2.915296         0.482531        -1.751878
 O         1.593006         0.877265        -1.220423
 O         2.352047         0.129009         0.794997
 H        -0.249391        -0.729382         0.937759
 H        -0.084739         0.891124         1.153581
 H        -0.776771         0.217219        -0.375859
 H         1.656160        -2.195035         0.169285
 H         1.151155        -2.032644        -1.490634
 H         3.875323        -1.593251        -1.607168
 H         4.360306        -0.797199         0.738220
 H         3.413689         1.908555        -0.396032
 H         4.990583         0.983586        -0.956153
 H         3.007132         0.797583        -2.780904
