19
Iteration:   309
 C        -0.121711         0.077775         0.421721
 C         1.232451        -0.131722        -0.201419
 C         1.734301        -1.456469        -0.749889
 C         3.083709        -0.962723        -1.095587
 C         3.627984        -0.148171         0.132780
 C         4.106374         0.950009        -0.856940
 C         2.903131         0.442545        -1.746186
 O         1.569200         0.865624        -1.206686
 O         2.302458        -0.008494         0.816188
 H        -0.430281        -0.674381         1.072850
 H        -0.023954         0.956024         1.043251
 H        -0.866156         0.250676        -0.351074
 H         1.781979        -2.324091        -0.056062
 H         1.044309        -1.701526        -1.543193
 H         3.704815        -1.659717        -1.650895
 H         4.384225        -0.482378         0.936140
 H         4.295237         2.003181        -0.370439
 H         5.008749         0.462769        -1.324264
 H         2.963385         0.465030        -2.825479
