19
Iteration:  3521charge 0 multiplicity 1
 C        -0.162178         0.171254         0.291355
 C         1.315142        -0.094006        -0.165423
 C         1.785434        -1.515433        -0.780308
 C         3.147693        -1.013384        -1.017732
 C         3.630334        -0.173935         0.144732
 C         3.958904         0.990432        -0.711226
 C         2.930009         0.368309        -1.692771
 O         1.655668         0.717177        -1.306014
 O         2.254734         0.145891         0.799398
 H        -0.436110        -0.210876         1.285815
 H        -0.377809         1.256056         0.189227
 H        -0.759385        -0.308194        -0.461348
 H         1.503486        -2.340621        -0.091318
 H         1.112440        -1.663277        -1.673290
 H         3.801017        -1.869546        -1.291886
 H         4.265568        -0.686944         0.875586
 H         3.576127         1.944135        -0.332230
 H         4.968038         1.099492        -0.980356
 H         3.128009         0.433999        -2.702174
