19
Iteration:  2613
 C        -0.080513         0.111832         0.322855
 C         1.329371        -0.088278        -0.264567
 C         1.677796        -1.490250        -0.734632
 C         3.079180        -1.001830        -1.088740
 C         3.530314        -0.113127         0.250921
 C         3.990758         1.011551        -0.793981
 C         2.962526         0.270458        -1.743061
 O         1.671150         0.775335        -1.307568
 O         2.272970         0.105177         0.881977
 H        -0.423806        -0.783361         0.858366
 H        -0.193913         1.004333         0.897370
 H        -0.852802         0.377572        -0.452860
 H         1.973831        -2.115511         0.080781
 H         1.091202        -2.140424        -1.390109
 H         3.795639        -1.628569        -1.529460
 H         4.353100        -0.224669         0.986639
 H         3.813790         2.109541        -0.656355
 H         5.058127         0.824424        -0.972741
 H         3.012161         0.345821        -2.861853
