19
Iteration:  3991charge 0 multiplicity 1
 C        -0.106960         0.163676         0.295204
 C         1.277045        -0.132500        -0.281427
 C         1.762510        -1.492459        -0.706932
 C         3.238862        -0.994263        -1.036504
 C         3.489358        -0.188353         0.195856
 C         3.913064         0.943833        -0.758553
 C         2.955378         0.402851        -1.798532
 O         1.615376         0.755105        -1.304502
 O         2.292018         0.119386         0.928454
 H        -0.434550        -0.741771         0.915502
 H        -0.086262         1.230290         0.624155
 H        -0.731178         0.228377        -0.621391
 H         1.677033        -2.168928         0.082391
 H         1.218102        -1.977545        -1.505559
 H         4.012899        -1.617291        -1.373477
 H         4.183570        -0.672925         0.866659
 H         3.918629         1.997142        -0.426287
 H         4.950410         0.679727        -1.168066
 H         3.027064         0.878720        -2.747675
