19
Iteration:  1969charge 0 multiplicity 1
 C        -0.108521         0.107262         0.283185
 C         1.319674        -0.071531        -0.143054
 C         1.724277        -1.483456        -0.780183
 C         3.113957        -1.048703        -1.085012
 C         3.573633        -0.184650         0.203781
 C         3.975887         0.905762        -0.795019
 C         2.901133         0.414160        -1.797846
 O         1.647956         0.785461        -1.288483
 O         2.302608         0.135247         0.956877
 H        -0.458379        -0.492586         1.139972
 H        -0.394268         1.148165         0.599035
 H        -0.772957        -0.062357        -0.613115
 H         1.741373        -2.392390        -0.070447
 H         1.059619        -1.706035        -1.723432
 H         3.888107        -1.671508        -1.466624
 H         4.347461        -0.585282         0.867259
 H         3.890912         1.962724        -0.532480
 H         5.048381         0.919962        -1.155236
 H         3.048376         0.743412        -2.826959
