19
Iteration:  4553charge 0 multiplicity 1
 C        -0.084492         0.091392         0.206765
 C         1.337982        -0.094321        -0.220585
 C         1.635390        -1.556181        -0.704354
 C         3.145385        -1.073794        -1.017136
 C         3.560382        -0.160476         0.240137
 C         3.922393         1.031252        -0.720698
 C         2.943166         0.373614        -1.755902
 O         1.643518         0.791469        -1.347412
 O         2.348907         0.162992         0.880944
 H        -0.245327        -0.207231         1.274230
 H        -0.198111         1.229268         0.081576
 H        -0.747551        -0.318079        -0.548612
 H         1.495670        -2.292828        -0.002635
 H         1.318298        -1.785167        -1.763787
 H         3.867872        -1.751301        -1.394135
 H         4.219969        -0.371942         1.095512
 H         3.612956         1.972247        -0.251571
 H         5.029297         0.980001        -0.940781
 H         2.855749         0.199363        -2.887667
