19
Iteration:   370charge 0 multiplicity 1
 C        -0.080208         0.253442         0.494874
 C         1.289551        -0.132134        -0.189028
 C         1.714376        -1.535463        -0.839318
 C         3.152388        -1.005967        -1.027263
 C         3.633572        -0.199937         0.146394
 C         3.961584         0.981624        -0.792238
 C         2.924238         0.512148        -1.706366
 O         1.494680         0.771054        -1.329197
 O         2.370477        -0.054989         0.827617
 H        -0.310788        -0.533883         1.358556
 H        -0.044148         1.306152         0.878211
 H        -0.830833         0.128692        -0.276124
 H         1.580671        -2.540178        -0.362769
 H         1.189578        -1.528532        -1.853967
 H         3.889961        -1.611467        -1.637309
 H         4.273819        -0.538745         0.918259
 H         3.963810         1.972394        -0.372148
 H         4.915023         0.881265        -1.304424
 H         2.989715         0.778052        -2.829803
