19
Iteration:  4338charge 0 multiplicity 1
 C        -0.099663         0.165682         0.227681
 C         1.300608        -0.157121        -0.150959
 C         1.688297        -1.590177        -0.734399
 C         3.153365        -1.019013        -1.021000
 C         3.490722        -0.134791         0.200279
 C         4.021168         0.961328        -0.742365
 C         2.943164         0.468818        -1.758210
 O         1.642466         0.738036        -1.359850
 O         2.283671         0.148222         0.895060
 H        -0.159652        -0.145967         1.265853
 H        -0.145868         1.263473         0.136163
 H        -0.837212        -0.257221        -0.430091
 H         1.765503        -2.428649         0.124814
 H         0.960643        -1.725900        -1.568079
 H         3.906632        -1.631477        -1.473967
 H         4.195293        -0.501291         0.969950
 H         4.036110         1.977556        -0.320110
 H         4.995882         0.693259        -1.116189
 H         3.097403         0.501253        -2.867038
