19
Iteration:  2333
 C        -0.106083         0.189327         0.362029
 C         1.283125        -0.056079        -0.225895
 C         1.779056        -1.450920        -0.799197
 C         3.192753        -1.024803        -1.036436
 C         3.496305        -0.176207         0.237653
 C         3.963674         0.978508        -0.787440
 C         2.953537         0.341469        -1.767808
 O         1.627167         0.738367        -1.315178
 O         2.255177         0.065945         0.862957
 H        -0.104768        -0.489977         1.303524
 H        -0.213678         1.323917         0.563848
 H        -1.019101        -0.234058        -0.229788
 H         1.649143        -2.187153         0.042935
 H         1.255531        -1.824704        -1.777883
 H         3.880851        -1.797884        -1.345366
 H         4.342745        -0.417338         0.915712
 H         3.867530         2.076311        -0.652141
 H         5.008781         0.823539        -0.994288
 H         3.071784         0.503265        -2.850520
