19
Iteration:  4659
 C        -0.041142         0.148357         0.176697
 C         1.328344        -0.111690        -0.231588
 C         1.698129        -1.452238        -0.670626
 C         3.200757        -1.085581        -0.960299
 C         3.544536        -0.107819         0.217689
 C         3.944491         1.060007        -0.784901
 C         2.903839         0.318435        -1.756600
 O         1.636668         0.753833        -1.300545
 O         2.258031         0.089459         0.839113
 H        -0.353796        -0.682864         0.803010
 H         0.010004         1.051620         0.746129
 H        -0.684781         0.100050        -0.671611
 H         1.633125        -2.160658         0.208621
 H         0.983879        -1.970080        -1.509343
 H         3.944641        -1.796429        -1.302239
 H         4.101004        -0.640903         0.986130
 H         3.807241         2.084402        -0.500169
 H         5.000188         0.942596        -0.989827
 H         2.903552         0.608647        -2.737415
