19
Iteration:  4120
 C        -0.092011         0.149411         0.228232
 C         1.309292        -0.094353        -0.243604
 C         1.683760        -1.535218        -0.694874
 C         3.162770        -1.051048        -1.017203
 C         3.592050        -0.223983         0.164526
 C         3.988059         1.006009        -0.726316
 C         2.938580         0.467699        -1.703625
 O         1.592745         0.740506        -1.331700
 O         2.305257         0.141994         0.862543
 H        -0.133439        -0.292166         1.252884
 H        -0.434586         1.177789         0.329674
 H        -0.706615        -0.485018        -0.380831
 H         1.398489        -2.161666         0.237130
 H         1.242186        -1.779949        -1.794198
 H         3.802809        -1.794173        -1.408946
 H         4.278393        -0.485987         0.985882
 H         3.759301         1.987410        -0.292799
 H         5.027647         0.911376        -1.171951
 H         3.016172         0.443567        -2.800723
