19
Iteration:  1813
 C        -0.095243         0.203189         0.352201
 C         1.367772        -0.043450        -0.283438
 C         1.767041        -1.533051        -0.681987
 C         3.123080        -0.974971        -1.105240
 C         3.568369        -0.213483         0.229617
 C         3.992567         0.948759        -0.704014
 C         2.885282         0.344127        -1.662200
 O         1.513700         0.829015        -1.353592
 O         2.309870         0.056286         0.762766
 H        -0.149511        -0.714273         1.024366
 H         0.060836         1.112620         0.943546
 H        -0.821756         0.195387        -0.396189
 H         1.796216        -2.277208         0.094341
 H         1.237099        -1.980394        -1.470013
 H         3.898311        -1.598254        -1.656093
 H         4.204973        -0.719848         0.962418
 H         3.702726         1.971424        -0.447619
 H         4.967282         0.871915        -1.083708
 H         3.221480         0.465174        -2.725688
