19
Iteration:  4516
 C        -0.121321         0.179357         0.310849
 C         1.208545        -0.193210        -0.207178
 C         1.744413        -1.537229        -0.670510
 C         3.164516        -0.983008        -1.083344
 C         3.510324        -0.129275         0.242923
 C         4.086477         1.008531        -0.696906
 C         2.963282         0.367462        -1.791073
 O         1.639307         0.731872        -1.378981
 O         2.247910         0.152969         0.837043
 H        -0.404114        -0.115359         1.288755
 H        -0.278497         1.195712         0.191810
 H        -0.782286        -0.366863        -0.355418
 H         1.692434        -2.452096         0.086402
 H         1.047068        -2.024697        -1.520043
 H         3.905066        -1.595612        -1.688423
 H         4.149284        -0.483350         1.066758
 H         4.165096         2.026882        -0.319313
 H         5.090352         0.750899        -0.991044
 H         3.150118         0.618687        -2.811377
