19
Iteration:  1535
 C        -0.051179         0.239543         0.320527
 C         1.284134        -0.082889        -0.163951
 C         1.744562        -1.571251        -0.787714
 C         3.150818        -1.024079        -1.106033
 C         3.612521        -0.265367         0.120283
 C         3.902022         0.957465        -0.688082
 C         2.890216         0.489486        -1.747152
 O         1.609333         0.717334        -1.251189
 O         2.329250         0.106618         0.834402
 H        -0.360722        -0.312339         1.192761
 H        -0.096182         1.307410         0.556528
 H        -0.945632         0.076079        -0.357409
 H         1.655413        -2.403211        -0.081321
 H         1.075802        -1.754137        -1.678052
 H         3.799194        -1.622141        -1.726159
 H         4.418546        -0.667971         0.763797
 H         3.777210         1.863128        -0.113854
 H         4.949342         1.063323        -0.873069
 H         2.921960         0.609763        -2.852257
