19
Iteration:  2038
 C        -0.018012         0.181799         0.366058
 C         1.319721        -0.155825        -0.254501
 C         1.666190        -1.456658        -0.771383
 C         3.145806        -0.997740        -1.047767
 C         3.536722        -0.154250         0.218623
 C         3.970396         1.001050        -0.792417
 C         2.978612         0.379967        -1.746524
 O         1.637598         0.755716        -1.327101
 O         2.223217         0.020354         0.875943
 H        -0.277198        -0.532804         1.118898
 H         0.041524         1.118410         0.866939
 H        -0.749763         0.246102        -0.418941
 H         1.623359        -2.278282        -0.001682
 H         1.163571        -1.643590        -1.767589
 H         3.861470        -1.808633        -1.335089
 H         4.220103        -0.536975         0.988479
 H         3.761904         2.044239        -0.433289
 H         5.059397         1.094418        -1.125096
 H         2.934489         0.556506        -2.804565
