19
Iteration:  4933
 C        -0.052375         0.179096         0.279621
 C         1.283045        -0.180047        -0.255525
 C         1.744455        -1.549888        -0.725871
 C         3.117144        -1.017008        -1.059920
 C         3.515089        -0.097793         0.331944
 C         4.103630         0.942471        -0.737933
 C         2.932190         0.441073        -1.703456
 O         1.602702         0.695349        -1.423965
 O         2.194660         0.145872         0.824275
 H         0.138899        -0.003568         1.378549
 H        -0.322493         1.285546         0.333224
 H        -1.020605        -0.252682        -0.091201
 H         1.630127        -2.154180         0.113620
 H         1.178074        -1.883368        -1.501278
 H         3.942224        -1.695995        -1.475774
 H         4.355127        -0.352491         1.035677
 H         4.037962         2.024273        -0.454815
 H         5.109819         0.625701        -1.009064
 H         3.075690         0.590495        -2.751282
