19
Iteration:  2015
 C        -0.095124         0.159873         0.409451
 C         1.347890        -0.090900        -0.215583
 C         1.750412        -1.529562        -0.753574
 C         3.118518        -1.028698        -1.183949
 C         3.506447        -0.194782         0.188344
 C         3.935375         0.920759        -0.648389
 C         2.979513         0.400806        -1.742139
 O         1.603562         0.787619        -1.395277
 O         2.275469         0.182128         0.851493
 H        -0.219414        -0.673551         1.046367
 H        -0.255246         0.982151         1.043807
 H        -0.910204         0.117487        -0.388702
 H         1.929092        -2.213741         0.151929
 H         1.107250        -1.965868        -1.633093
 H         3.901132        -1.750340        -1.542885
 H         4.211210        -0.582971         0.940618
 H         4.088381         1.933516        -0.256307
 H         5.030591         0.709836        -0.996325
 H         3.139027         0.545228        -2.785033
