19
Iteration:  2878charge 0 multiplicity 1
 C        -0.075323         0.117423         0.272532
 C         1.319624        -0.128476        -0.180971
 C         1.690189        -1.436686        -0.694348
 C         3.165881        -1.003342        -1.030629
 C         3.574934        -0.195323         0.168200
 C         4.027149         0.994002        -0.758150
 C         2.893995         0.366960        -1.704498
 O         1.613273         0.720615        -1.308771
 O         2.268622         0.146143         0.833850
 H        -0.363152        -0.346897         1.233123
 H        -0.294860         1.233628         0.272450
 H        -0.701582        -0.374942        -0.536182
 H         1.282554        -2.298838        -0.099288
 H         1.227635        -1.483078        -1.665339
 H         3.919678        -1.834504        -1.475968
 H         4.353608        -0.497429         0.904276
 H         3.799078         2.023818        -0.447227
 H         5.102978         0.942798        -1.093982
 H         3.013904         0.453697        -2.818794
