19
Iteration:  2909
 C        -0.055389         0.123606         0.368009
 C         1.241357        -0.134473        -0.242155
 C         1.754058        -1.571796        -0.713743
 C         3.133096        -0.962629        -1.119728
 C         3.505834        -0.152872         0.246959
 C         4.050240         0.945801        -0.726565
 C         2.948623         0.361779        -1.716775
 O         1.630439         0.836795        -1.351335
 O         2.252123         0.130345         0.810410
 H        -0.271813        -0.226700         1.371267
 H        -0.518476         1.134904         0.220081
 H        -0.739248        -0.409560        -0.299570
 H         1.618144        -2.156445         0.152377
 H         1.169434        -1.848811        -1.551528
 H         4.034972        -1.619179        -1.509002
 H         4.278323        -0.443734         1.037385
 H         3.917413         1.989481        -0.492778
 H         5.073450         0.662378        -1.000564
 H         2.989024         0.395378        -2.891273
