19
Iteration:  4087charge 0 multiplicity 1
 C        -0.114983         0.188990         0.282641
 C         1.316987        -0.149105        -0.198596
 C         1.724405        -1.569914        -0.762477
 C         3.173377        -1.051494        -1.099930
 C         3.538463        -0.128109         0.219289
 C         3.992872         0.958235        -0.760232
 C         2.945479         0.416486        -1.718956
 O         1.629340         0.757997        -1.292448
 O         2.256419         0.178131         0.897229
 H        -0.310282        -0.455271         1.166968
 H        -0.327561         1.253687         0.400802
 H        -0.749179        -0.189463        -0.521481
 H         1.569283        -2.435506        -0.096590
 H         1.221973        -2.115267        -1.698469
 H         3.943065        -1.636648        -1.461318
 H         4.221752        -0.397894         1.048720
 H         3.949951         2.021772        -0.502064
 H         5.039358         0.760998        -1.177603
 H         2.956656         0.500170        -2.835521
