19
Iteration:  3058charge 0 multiplicity 1
 C        -0.102849         0.174309         0.275234
 C         1.287399        -0.105665        -0.293760
 C         1.795853        -1.503425        -0.668356
 C         3.143153        -1.054500        -1.000837
 C         3.530943        -0.145053         0.194144
 C         3.925143         0.951832        -0.763215
 C         2.975869         0.409056        -1.774554
 O         1.624692         0.779487        -1.302647
 O         2.270833         0.105587         0.830389
 H        -0.296643        -0.505981         1.123055
 H        -0.240902         1.099303         0.920009
 H        -0.984761         0.078784        -0.332755
 H         1.641608        -2.304343         0.137073
 H         1.094089        -1.761910        -1.581210
 H         3.995188        -1.774656        -1.184847
 H         4.339162        -0.677520         0.721262
 H         3.923490         1.989621        -0.361152
 H         4.947123         0.697587        -1.175741
 H         3.192940         0.543690        -2.801794
