19
Iteration:  3302charge 0 multiplicity 1
 C        -0.182792         0.103124         0.250989
 C         1.330768        -0.088675        -0.166252
 C         1.746309        -1.403674        -0.703179
 C         3.156948        -1.026007        -0.995354
 C         3.576474        -0.181561         0.230368
 C         3.981969         0.939771        -0.750360
 C         2.971026         0.325214        -1.725941
 O         1.557294         0.770896        -1.360836
 O         2.340188         0.152419         0.839864
 H        -0.362879        -0.292480         1.256748
 H        -0.290749         1.169523         0.139596
 H        -0.775353        -0.398279        -0.507820
 H         1.684314        -2.285724        -0.005005
 H         1.322316        -1.661241        -1.742555
 H         3.821553        -1.641973        -1.608729
 H         4.174149        -0.675446         1.006553
 H         3.838793         1.995201        -0.392912
 H         5.001965         0.836984        -1.201973
 H         2.865919         0.426457        -2.751746
