19
Iteration:  1933
 C        -0.081711         0.227197         0.359795
 C         1.364471        -0.125425        -0.261124
 C         1.671366        -1.591225        -0.815003
 C         3.088080        -1.096283        -1.019998
 C         3.607311        -0.106034         0.222213
 C         3.958429         0.983728        -0.753278
 C         2.931625         0.446353        -1.700480
 O         1.610556         0.784750        -1.314021
 O         2.314876         0.042197         0.816618
 H        -0.140309        -0.386342         1.375665
 H        -0.157888         1.393196         0.504818
 H        -0.841307        -0.182921        -0.284239
 H         1.505986        -2.235148         0.052061
 H         1.276584        -1.989938        -1.711625
 H         3.868714        -1.683679        -1.521270
 H         4.316706        -0.363565         1.021826
 H         3.598966         1.976560        -0.445204
 H         4.931858         0.881727        -1.081353
 H         2.967194         0.757263        -2.803976
