19
Iteration:   361charge 0 multiplicity 1
 C        -0.050977         0.215627         0.472899
 C         1.291536        -0.117343        -0.073471
 C         1.658790        -1.481405        -0.866157
 C         3.117833        -1.026586        -1.112305
 C         3.683950        -0.229236         0.145041
 C         3.989176         1.048412        -0.742449
 C         2.876551         0.488228        -1.671062
 O         1.519878         0.687988        -1.396473
 O         2.376116        -0.010444         0.840326
 H        -0.357154        -0.601297         1.203242
 H        -0.157657         1.223755         0.878496
 H        -0.691170         0.223784        -0.358178
 H         1.420096        -2.250582        -0.168773
 H         1.115705        -1.454555        -1.787670
 H         3.863351        -1.592946        -1.730809
 H         4.411953        -0.632109         0.871538
 H         3.818276         2.093950        -0.372144
 H         4.933394         0.903715        -1.118897
 H         3.111821         0.725696        -2.811969
