19
Iteration:  2802charge 0 multiplicity 1
 C        -0.091414         0.154899         0.300667
 C         1.309228        -0.102864        -0.225187
 C         1.757521        -1.456641        -0.817140
 C         3.147853        -1.070348        -1.021603
 C         3.549001        -0.192558         0.240858
 C         3.894479         0.972438        -0.750287
 C         2.943513         0.346072        -1.815564
 O         1.637365         0.665549        -1.302279
 O         2.288159         0.247618         0.901480
 H        -0.350868        -0.701387         0.945311
 H         0.221459         0.931508         1.078459
 H        -0.864279         0.467399        -0.412025
 H         1.356047        -2.348956        -0.177953
 H         1.016235        -1.586835        -1.594349
 H         4.011344        -1.856438        -1.368291
 H         4.368217        -0.518712         0.896082
 H         3.951486         1.970255        -0.278742
 H         4.945886         0.831291        -1.214324
 H         3.019742         0.650847        -2.866378
