19
Iteration:  3714charge 0 multiplicity 1
 C        -0.044971         0.102358         0.273144
 C         1.318571        -0.112878        -0.243629
 C         1.720600        -1.548308        -0.711787
 C         3.141669        -1.018425        -1.075421
 C         3.533636        -0.188823         0.270466
 C         3.925003         0.959960        -0.674660
 C         2.916996         0.356059        -1.690695
 O         1.633328         0.867706        -1.394639
 O         2.304870         0.143738         0.792069
 H        -0.137157        -0.254144         1.320809
 H        -0.345480         1.145400         0.482364
 H        -0.751718        -0.532711        -0.231466
 H         1.555279        -2.239296         0.049592
 H         1.218845        -1.928418        -1.559821
 H         3.981445        -1.654147        -1.456830
 H         4.255132        -0.411902         1.015295
 H         3.628160         2.003166        -0.329688
 H         4.984104         0.940213        -1.075351
 H         3.069679         0.414988        -2.812669
