19
Iteration:  4401
 C        -0.080973         0.153044         0.221257
 C         1.345525        -0.094114        -0.201675
 C         1.629558        -1.455479        -0.705462
 C         3.145538        -1.035465        -1.043721
 C         3.537777        -0.177251         0.241794
 C         4.000578         1.039165        -0.737463
 C         3.012751         0.319030        -1.678921
 O         1.595548         0.653437        -1.349039
 O         2.301008         0.169818         0.816186
 H        -0.428118        -0.696560         0.927931
 H        -0.063243         1.117439         0.869791
 H        -0.874318         0.103040        -0.568465
 H         1.721963        -2.283679        -0.078104
 H         0.947157        -1.622362        -1.479424
 H         3.900979        -1.666638        -1.570081
 H         4.208630        -0.320634         1.122275
 H         3.667955         2.023501        -0.345715
 H         5.059790         0.862065        -1.166294
 H         3.034174         0.583035        -2.801334
