19
Iteration:   269charge 0 multiplicity 1
 C        -0.026198         0.085007         0.396380
 C         1.355284        -0.110704        -0.165662
 C         1.680435        -1.463058        -0.780686
 C         3.061945        -1.032242        -1.162239
 C         3.636558        -0.260917         0.112648
 C         3.909016         0.924235        -0.702583
 C         2.901170         0.388396        -1.723279
 O         1.594381         0.881679        -1.219262
 O         2.368753         0.126887         0.789789
 H        -0.082516        -0.605999         1.249874
 H        -0.075426         1.172316         0.716765
 H        -0.925032        -0.057334        -0.350866
 H         1.565307        -2.378102        -0.118805
 H         1.132820        -1.525900        -1.797815
 H         3.652039        -1.683123        -1.770064
 H         4.338306        -0.575652         0.887917
 H         3.488082         1.803870        -0.294176
 H         4.974660         1.070472        -1.017749
 H         2.914339         0.537393        -2.790918
