19
Iteration:  1966
 C        -0.134558         0.116404         0.276468
 C         1.367832        -0.098674        -0.135740
 C         1.732850        -1.480845        -0.775765
 C         3.109769        -1.040791        -1.083103
 C         3.549748        -0.206363         0.201794
 C         3.969606         0.909595        -0.826480
 C         2.931021         0.429071        -1.817609
 O         1.655588         0.789542        -1.284637
 O         2.280074         0.130152         0.975413
 H        -0.435436        -0.532984         1.228394
 H        -0.356263         1.232715         0.620593
 H        -0.815810        -0.073161        -0.543109
 H         1.736539        -2.262154        -0.039770
 H         1.193003        -1.669195        -1.669251
 H         3.897609        -1.668098        -1.469542
 H         4.300196        -0.638012         0.870909
 H         3.817802         1.964974        -0.549103
 H         4.971498         0.911156        -1.108013
 H         3.013486         0.739448        -2.926887
