19
Iteration:  1365charge 0 multiplicity 1
 C         0.030948         0.114032         0.363762
 C         1.308426        -0.157209        -0.224660
 C         1.663413        -1.506798        -0.776467
 C         3.086142        -1.003696        -1.160973
 C         3.496795        -0.242551         0.129190
 C         4.016266         1.065770        -0.745482
 C         2.977644         0.438729        -1.698569
 O         1.669513         0.797787        -1.269359
 O         2.218090         0.106147         0.856863
 H        -0.059380        -0.434366         1.415028
 H        -0.149506         1.166613         0.796994
 H        -0.895138        -0.264255        -0.133958
 H         1.792044        -2.340208        -0.064969
 H         0.921239        -1.859698        -1.521424
 H         3.914750        -1.644887        -1.413039
 H         4.053484        -0.917978         0.834615
 H         3.941738         2.125974        -0.558302
 H         5.002039         0.839169        -1.035556
 H         2.928325         0.632621        -2.828728
