19
Iteration:  1089charge 0 multiplicity 1
 C        -0.084458         0.118705         0.323356
 C         1.337468        -0.069228        -0.177078
 C         1.682574        -1.473285        -0.754304
 C         3.064939        -1.018554        -1.151634
 C         3.640568        -0.158381         0.207312
 C         3.972363         0.929084        -0.754343
 C         2.896116         0.447814        -1.707809
 O         1.533521         0.774499        -1.288554
 O         2.402523         0.064592         0.874005
 H        -0.211228        -0.733382         0.955975
 H        -0.245316         0.866137         1.089873
 H        -0.797459         0.163033        -0.656154
 H         1.571253        -2.264547        -0.019864
 H         1.021405        -1.763848        -1.595165
 H         3.754971        -1.646232        -1.770685
 H         4.398934        -0.603008         0.808461
 H         3.988965         1.928850        -0.409882
 H         4.917389         0.789309        -1.288391
 H         3.116649         0.787116        -2.767022
