19
Iteration:  3596charge 0 multiplicity 1
 C        -0.036491         0.131560         0.287746
 C         1.270460        -0.074582        -0.235469
 C         1.704869        -1.477293        -0.789983
 C         3.156711        -1.027175        -1.029151
 C         3.574234        -0.160244         0.243774
 C         3.962232         0.980238        -0.687007
 C         2.921034         0.371163        -1.678677
 O         1.585432         0.665041        -1.335775
 O         2.304069         0.185648         0.790872
 H        -0.314507        -0.745886         0.956174
 H        -0.010200         1.107849         0.881587
 H        -0.654495         0.161403        -0.618936
 H         1.582325        -2.234488        -0.014570
 H         1.211929        -1.901065        -1.699638
 H         3.839334        -1.759566        -1.576611
 H         4.146663        -0.179042         1.156540
 H         3.819586         2.023322        -0.394349
 H         4.936027         0.839248        -1.062844
 H         3.179566         0.414670        -2.709309
