19
Iteration:  2177
 C        -0.137652         0.273998         0.283381
 C         1.330251        -0.126706        -0.233672
 C         1.758926        -1.647087        -0.693357
 C         3.177720        -1.021759        -1.030545
 C         3.575288        -0.274706         0.200356
 C         3.930077         0.954272        -0.737041
 C         2.903307         0.449668        -1.744878
 O         1.573205         0.844364        -1.288871
 O         2.298735         0.101660         0.786069
 H        -0.259763        -0.477838         1.030132
 H        -0.019323         1.244071         0.733841
 H        -0.825629         0.309706        -0.688861
 H         2.063549        -2.169007         0.169298
 H         1.250424        -2.144339        -1.459559
 H         4.013304        -1.666121        -1.390889
 H         4.339552        -0.712941         0.838682
 H         3.642519         1.855903        -0.331048
 H         4.935041         0.875309        -1.089826
 H         3.055644         0.718851        -2.763772
