19
Iteration:   863
 C        -0.073880         0.214204         0.391584
 C         1.275765        -0.104520        -0.229842
 C         1.796402        -1.510900        -0.835313
 C         3.149505        -1.037151        -1.080639
 C         3.615155        -0.247354         0.145016
 C         3.965228         0.951857        -0.808131
 C         2.884195         0.432011        -1.751713
 O         1.512440         0.833707        -1.171414
 O         2.369936         0.018338         0.847083
 H        -0.275503        -0.626083         1.074560
 H        -0.021711         1.181115         0.887795
 H        -0.987928         0.213527        -0.414945
 H         1.634633        -2.283862        -0.074552
 H         1.109080        -1.657220        -1.728796
 H         3.935419        -1.639165        -1.566203
 H         4.343625        -0.539940         0.942141
 H         3.816589         1.955853        -0.292724
 H         4.896625         0.958085        -1.234471
 H         2.691620         0.685024        -2.836218
