19
Iteration:  2999charge 0 multiplicity 1
 C        -0.122258         0.180203         0.334003
 C         1.321660        -0.141086        -0.214190
 C         1.812520        -1.487913        -0.726666
 C         3.121628        -1.031993        -1.028875
 C         3.600368        -0.142553         0.240650
 C         4.000952         0.941086        -0.773670
 C         2.918506         0.370370        -1.743093
 O         1.594545         0.787210        -1.336336
 O         2.211444         0.124151         0.821513
 H        -0.487111        -0.789686         0.733723
 H        -0.109567         1.077779         0.910296
 H        -0.677857         0.364901        -0.628139
 H         1.813490        -2.219870         0.053190
 H         1.272999        -1.798189        -1.553358
 H         3.969670        -1.650801        -1.392204
 H         4.218035        -0.658704         0.998854
 H         3.832675         1.960565        -0.429789
 H         5.021160         0.813103        -1.102403
 H         3.012841         0.326256        -2.874627
