19
Iteration:  4313
 C        -0.135676         0.161249         0.202718
 C         1.300855        -0.022567        -0.178826
 C         1.720585        -1.490220        -0.763730
 C         3.205616        -1.074036        -1.013607
 C         3.595017        -0.228756         0.219034
 C         3.947499         0.977286        -0.697726
 C         2.918547         0.325553        -1.729886
 O         1.586044         0.752809        -1.291732
 O         2.337800         0.149551         0.836436
 H        -0.266009        -0.160916         1.290466
 H        -0.211726         1.279085         0.066986
 H        -0.801840        -0.302935        -0.586950
 H         1.864046        -2.176520         0.066724
 H         1.144884        -1.746342        -1.610381
 H         3.716235        -1.826894        -1.684950
 H         4.248752        -0.476926         1.081997
 H         3.552067         1.948999        -0.347782
 H         5.028219         1.014314        -1.034862
 H         2.923709         0.488299        -2.872640
