19
Iteration:  3321
 C        -0.092793         0.190319         0.250145
 C         1.320552        -0.150779        -0.220318
 C         1.718648        -1.589905        -0.753977
 C         3.121299        -1.048994        -1.012155
 C         3.550269        -0.136443         0.221530
 C         4.050080         0.992382        -0.765713
 C         2.920793         0.455862        -1.738052
 O         1.596250         0.722412        -1.287463
 O         2.245211         0.161189         0.851788
 H        -0.050051        -0.212888         1.276801
 H        -0.358500         1.223221         0.136859
 H        -0.695493        -0.488827        -0.433025
 H         1.697631        -2.258109         0.115744
 H         0.993707        -1.810130        -1.555520
 H         3.900139        -1.644542        -1.381988
 H         4.310492        -0.487913         0.903278
 H         4.060341         1.991175        -0.387367
 H         5.002893         0.727392        -1.196646
 H         3.211072         0.536731        -2.747510
