19
Iteration:   916charge 0 multiplicity 1
 C        -0.046237         0.102623         0.441301
 C         1.259465        -0.107595        -0.278213
 C         1.755113        -1.455786        -0.768453
 C         3.097947        -0.986438        -1.128357
 C         3.570842        -0.283870         0.139112
 C         3.900041         0.940807        -0.745602
 C         2.929082         0.443719        -1.767258
 O         1.596369         0.875146        -1.338556
 O         2.364692         0.037425         0.938754
 H        -0.194539        -0.757523         1.004321
 H         0.074498         0.944066         1.062512
 H        -0.976198         0.342996        -0.146628
 H         1.784269        -1.962994         0.197596
 H         1.153811        -1.944693        -1.546105
 H         3.695225        -1.595920        -1.797500
 H         4.334106        -0.661989         0.809607
 H         3.873519         1.972640        -0.350168
 H         4.893997         0.834329        -1.114497
 H         2.995913         0.648195        -2.898251
