19
Iteration:  3806
 C        -0.052333         0.127450         0.341166
 C         1.309501        -0.140123        -0.221713
 C         1.719376        -1.440855        -0.760082
 C         3.089190        -0.996896        -1.094624
 C         3.609292        -0.139646         0.250882
 C         3.949620         1.015960        -0.717828
 C         2.973280         0.358195        -1.669765
 O         1.637680         0.706434        -1.374709
 O         2.258665         0.167416         0.808581
 H        -0.372986        -0.879433         0.788371
 H        -0.276308         0.995563         1.024335
 H        -0.617366         0.017025        -0.701882
 H         1.539604        -2.286766        -0.036589
 H         1.030884        -1.846703        -1.568078
 H         3.766173        -1.777269        -1.385073
 H         4.054732        -0.620685         1.176914
 H         3.929212         2.035417        -0.412160
 H         4.957293         0.931233        -1.091665
 H         3.081593         0.308796        -2.739415
