19
Iteration:  2099charge 0 multiplicity 1
 C        -0.056515         0.126989         0.352959
 C         1.317372        -0.066088        -0.247697
 C         1.682938        -1.546750        -0.634962
 C         3.060272        -1.016457        -1.131366
 C         3.499331        -0.181608         0.240855
 C         4.065441         0.956552        -0.722800
 C         2.973023         0.497950        -1.730856
 O         1.617620         0.818388        -1.392834
 O         2.299680         0.046129         0.821781
 H        -0.261727        -0.541578         1.239815
 H        -0.437085         1.193620         0.475674
 H        -0.903202        -0.356103        -0.400919
 H         1.649031        -2.229320         0.210758
 H         1.087613        -1.994555        -1.441456
 H         3.841460        -1.665102        -1.539599
 H         4.280131        -0.559310         0.922069
 H         4.000874         1.955049        -0.390007
 H         4.969261         0.564300        -1.136654
 H         3.201919         0.819159        -2.784091
