19
Iteration:  3780charge 0 multiplicity 1
 C        -0.114562         0.174767         0.270730
 C         1.296849        -0.129592        -0.279338
 C         1.773652        -1.461219        -0.707663
 C         3.210033        -1.090155        -1.015145
 C         3.541631        -0.182081         0.199044
 C         3.928542         0.952153        -0.739373
 C         2.945926         0.416309        -1.772519
 O         1.613498         0.777424        -1.342271
 O         2.299840         0.112228         0.877225
 H        -0.243761        -0.663200         0.942755
 H        -0.175274         1.160443         0.818135
 H        -0.901359         0.030766        -0.527413
 H         1.528055        -2.096378         0.075594
 H         1.018358        -1.832407        -1.375533
 H         4.107030        -1.674821        -1.388477
 H         4.092405        -0.606850         0.981039
 H         3.598529         1.919805        -0.237319
 H         5.025193         1.171453        -0.902015
 H         2.962848         0.455675        -2.883396
