19
Iteration:  4025
 C        -0.049318         0.148112         0.308798
 C         1.257707        -0.165486        -0.220078
 C         1.647910        -1.464281        -0.729059
 C         3.211973        -1.004879        -1.056151
 C         3.547688        -0.182300         0.215480
 C         3.984877         1.007996        -0.685546
 C         2.970115         0.369277        -1.711532
 O         1.574823         0.682459        -1.330529
 O         2.289363         0.181305         0.768849
 H        -0.587242        -0.573231         1.002301
 H         0.081910         1.037251         0.970651
 H        -0.580502         0.242295        -0.653196
 H         1.698370        -2.199927         0.010214
 H         1.226156        -1.777295        -1.632523
 H         4.044694        -1.598520        -1.471443
 H         4.188104        -0.628329         0.977905
 H         3.761177         2.018638        -0.290694
 H         5.028874         0.936805        -1.073459
 H         3.063195         0.481005        -2.782618
