19
Iteration:  3955
 C        -0.118672         0.091478         0.296327
 C         1.303144        -0.110454        -0.254866
 C         1.661188        -1.558230        -0.776882
 C         3.159055        -1.075430        -0.964051
 C         3.612806        -0.182361         0.195327
 C         3.941682         1.004213        -0.707713
 C         2.957228         0.401244        -1.705725
 O         1.634743         0.794097        -1.331105
 O         2.336881         0.176232         0.815156
 H        -0.462882        -0.371722         1.192738
 H        -0.430887         1.089045         0.595274
 H        -0.805525        -0.311140        -0.498843
 H         1.324006        -2.205996         0.074729
 H         1.110865        -1.560129        -1.781465
 H         3.966553        -1.762808        -1.343534
 H         4.359913        -0.671511         0.853761
 H         3.653178         2.004048        -0.304515
 H         4.978520         0.994312        -1.212047
 H         3.175282         0.687234        -2.774276
