19
Iteration:  2184
 C        -0.093510         0.254459         0.280345
 C         1.301953        -0.133825        -0.194009
 C         1.775360        -1.632599        -0.739302
 C         3.115438        -1.072562        -1.139398
 C         3.623434        -0.205416         0.223434
 C         3.912322         0.933185        -0.694422
 C         2.900522         0.430680        -1.701569
 O         1.584202         0.802456        -1.270204
 O         2.294521         0.157030         0.765978
 H        -0.550932        -0.467108         1.040237
 H         0.089202         1.273451         0.749285
 H        -0.606999         0.288656        -0.722064
 H         1.862389        -2.270817         0.192082
 H         1.164478        -2.218454        -1.473697
 H         3.949359        -1.672623        -1.484735
 H         4.306135        -0.547293         1.036445
 H         3.817816         2.013573        -0.264275
 H         4.983558         1.005024        -1.067136
 H         3.101221         0.617747        -2.826309
