19
Iteration:  2973charge 0 multiplicity 1
 C        -0.085963         0.211920         0.297278
 C         1.335754        -0.178856        -0.242284
 C         1.732957        -1.533778        -0.738014
 C         3.137365        -1.094459        -1.038272
 C         3.513915        -0.102770         0.215596
 C         3.926938         1.017617        -0.782732
 C         2.968361         0.447321        -1.752253
 O         1.658690         0.702454        -1.278303
 O         2.256846         0.099086         0.874349
 H        -0.435960        -0.540256         0.991382
 H         0.010683         1.274621         0.644001
 H        -0.710806         0.227358        -0.580977
 H         1.579659        -2.148544         0.175183
 H         1.089223        -1.954572        -1.570973
 H         4.006139        -1.660149        -1.523755
 H         4.231829        -0.699787         0.882598
 H         3.752872         2.095909        -0.628068
 H         5.017364         0.847027        -0.964006
 H         3.064641         0.787034        -2.934447
