19
Iteration:  1607
 C        -0.120675         0.086561         0.351426
 C         1.331743        -0.105973        -0.118732
 C         1.698143        -1.427286        -0.711834
 C         3.088649        -0.988911        -1.195351
 C         3.601100        -0.207251         0.173500
 C         4.049419         0.905165        -0.720307
 C         2.913240         0.417851        -1.736225
 O         1.609226         0.750668        -1.287972
 O         2.296136         0.141849         0.823623
 H        -0.607596        -0.588004         1.054984
 H        -0.377254         1.078095         0.654561
 H        -0.709698        -0.043659        -0.445739
 H         1.665647        -2.287635        -0.077817
 H         1.144203        -1.656771        -1.614760
 H         3.821957        -1.624415        -1.750623
 H         4.272695        -0.566223         0.922938
 H         3.993995         1.974062        -0.409283
 H         5.044900         0.823583        -1.161916
 H         3.133513         0.710258        -2.713676
