19
Iteration:   160charge 0 multiplicity 1
 C        -0.023430         0.054564         0.391166
 C         1.335887        -0.116037        -0.207308
 C         1.717693        -1.544768        -0.751437
 C         3.062989        -0.954204        -1.184234
 C         3.590974        -0.258137         0.141246
 C         4.026719         0.864887        -0.755775
 C         2.861218         0.543175        -1.710349
 O         1.584852         0.829437        -1.243428
 O         2.305951         0.173405         0.856525
 H        -0.324837        -0.873016         0.872737
 H        -0.189061         0.966709         1.051247
 H        -0.848071         0.163285        -0.451908
 H         1.721854        -2.251084         0.124281
 H         1.122730        -1.841444        -1.658799
 H         3.766365        -1.483437        -1.799234
 H         4.223160        -0.768425         0.875173
 H         4.117671         1.828920        -0.397137
 H         5.021032         0.601087        -1.162629
 H         2.878292         0.806006        -2.804368
