19
Iteration:  2730
 C        -0.088895         0.160590         0.284440
 C         1.250726        -0.153978        -0.119824
 C         1.681345        -1.579887        -0.811978
 C         3.139772        -1.059192        -1.025094
 C         3.643545        -0.154521         0.230849
 C         3.990241         0.970088        -0.710745
 C         2.892781         0.429534        -1.710038
 O         1.595912         0.778931        -1.385897
 O         2.336038         0.190583         0.862701
 H        -0.137478        -0.258799         1.347479
 H        -0.120962         1.253310         0.144414
 H        -0.855663        -0.237269        -0.437869
 H         1.622323        -2.560868        -0.176787
 H         1.064388        -1.750167        -1.768336
 H         3.916983        -1.690900        -1.463774
 H         4.332508        -0.609760         0.988026
 H         3.819331         2.025044        -0.448536
 H         5.001105         0.867243        -1.092058
 H         2.938648         0.363848        -2.833375
