19
Iteration:  1479
 C        -0.069925         0.047056         0.426425
 C         1.328124        -0.081510        -0.173854
 C         1.686634        -1.452422        -0.868180
 C         3.118474        -1.079352        -1.119596
 C         3.544359        -0.215348         0.204475
 C         4.006379         0.998000        -0.769415
 C         2.931038         0.376196        -1.706583
 O         1.631916         0.773487        -1.230880
 O         2.307994         0.205572         0.808916
 H        -0.473224        -0.634825         1.165860
 H        -0.152352         1.027740         0.905303
 H        -0.721057         0.176659        -0.518177
 H         1.537898        -2.419290        -0.442375
 H         1.034042        -1.442215        -1.757600
 H         3.824082        -1.804622        -1.600916
 H         4.291855        -0.659916         0.842486
 H         3.700879         1.943760        -0.388309
 H         4.964202         0.805323        -1.081458
 H         3.024682         0.496070        -2.752589
