19
Iteration:  3027
 C        -0.115683         0.110876         0.298046
 C         1.336922        -0.109829        -0.261889
 C         1.671878        -1.491653        -0.739320
 C         3.034398        -1.116927        -1.081952
 C         3.633664        -0.089728         0.259488
 C         3.989768         0.976619        -0.684275
 C         2.955264         0.379490        -1.698687
 O         1.587748         0.714479        -1.360569
 O         2.338794         0.237710         0.833725
 H        -0.302480        -0.881896         0.695511
 H        -0.267806         0.931277         1.065432
 H        -0.772552         0.211440        -0.553920
 H         1.677344        -2.371961        -0.025792
 H         0.959150        -1.603029        -1.655630
 H         3.865128        -1.825448        -1.462948
 H         4.380828        -0.606546         0.939122
 H         3.847878         1.999432        -0.276368
 H         5.056610         0.874226        -1.061119
 H         3.262299         0.398515        -2.796681
