19
Iteration:  1388charge 0 multiplicity 1
 C        -0.107864         0.178937         0.355574
 C         1.263775        -0.093882        -0.178672
 C         1.735250        -1.421072        -0.831164
 C         3.139816        -1.015545        -1.090233
 C         3.655264        -0.186739         0.173466
 C         3.905860         0.948089        -0.712523
 C         2.949176         0.381059        -1.777972
 O         1.601345         0.807677        -1.304067
 O         2.357306        -0.031433         0.885376
 H        -0.447136        -0.234303         1.411488
 H        -0.287900         1.311414         0.563471
 H        -0.890498        -0.167598        -0.320282
 H         1.685939        -2.318795        -0.197285
 H         1.049665        -1.582137        -1.638690
 H         3.873526        -1.705447        -1.526884
 H         4.385225        -0.395052         0.977539
 H         3.638215         1.946020        -0.349897
 H         4.862045         0.935471        -1.075856
 H         2.909789         0.556363        -2.870373
