19
Iteration:  3846
 C        -0.142159         0.136072         0.323006
 C         1.295123        -0.139922        -0.202506
 C         1.743937        -1.524448        -0.737255
 C         3.193480        -1.011788        -1.021290
 C         3.523295        -0.164542         0.249575
 C         4.038057         0.996883        -0.754642
 C         2.912302         0.385111        -1.684311
 O         1.636350         0.790283        -1.346886
 O         2.244620         0.101629         0.771597
 H        -0.295434        -0.700857         0.974860
 H        -0.241909         1.170631         0.746882
 H        -0.873887         0.150713        -0.558607
 H         1.908473        -2.181905         0.091080
 H         1.031962        -2.002191        -1.442541
 H         3.918060        -1.549032        -1.670455
 H         4.256564        -0.455151         0.985799
 H         3.890383         2.067208        -0.406113
 H         5.059894         0.898658        -1.265877
 H         3.086643         0.464064        -2.785639
