19
Iteration:  1932charge 0 multiplicity 1
 C        -0.076305         0.229456         0.357491
 C         1.355626        -0.124631        -0.252501
 C         1.676184        -1.597398        -0.819398
 C         3.091278        -1.093083        -1.016902
 C         3.614043        -0.114741         0.226674
 C         3.953056         0.984985        -0.754113
 C         2.932124         0.455563        -1.699094
 O         1.603591         0.780856        -1.322016
 O         2.320638         0.050734         0.817814
 H        -0.128746        -0.379747         1.369688
 H        -0.145848         1.377072         0.504614
 H        -0.856158        -0.190093        -0.283069
 H         1.443246        -2.247453         0.001729
 H         1.268514        -1.981657        -1.692841
 H         3.874973        -1.719678        -1.533443
 H         4.310628        -0.368894         1.043032
 H         3.597110         1.965105        -0.410003
 H         4.925720         0.855887        -1.099771
 H         2.979474         0.760961        -2.804827
