19
Iteration:   655
 C        -0.121931         0.196461         0.459278
 C         1.327315        -0.109189        -0.086955
 C         1.711780        -1.466737        -0.911464
 C         3.043811        -0.973418        -1.129036
 C         3.603912        -0.174342         0.116853
 C         3.960641         0.952299        -0.732821
 C         2.914536         0.411112        -1.784261
 O         1.630652         0.693353        -1.246327
 O         2.404289         0.070766         0.891059
 H        -0.458290        -0.570773         1.098639
 H        -0.462767         1.174833         0.856469
 H        -0.729749         0.104546        -0.547929
 H         1.591889        -2.444379        -0.398317
 H         1.095350        -1.441296        -1.799764
 H         3.810674        -1.557262        -1.666625
 H         4.177622        -0.930391         0.616376
 H         3.770629         2.108392        -0.289330
 H         5.047100         0.960675        -1.017505
 H         2.931499         0.593804        -2.803521
