19
Iteration:  4942charge 0 multiplicity 1
 C        -0.024917         0.174032         0.312722
 C         1.275959        -0.183905        -0.315502
 C         1.785193        -1.474957        -0.734784
 C         3.196560        -0.963658        -1.012300
 C         3.546606        -0.067553         0.315943
 C         4.013053         0.869169        -0.750645
 C         2.948546         0.376194        -1.713696
 O         1.571209         0.744799        -1.388369
 O         2.150926         0.131477         0.830401
 H        -0.025499        -0.078384         1.399201
 H        -0.049923         1.328742         0.206401
 H        -0.873784        -0.412309        -0.062432
 H         1.647778        -2.103491         0.123335
 H         1.236098        -1.872443        -1.480328
 H         3.902863        -1.668541        -1.555027
 H         4.054927        -0.618687         1.150756
 H         4.162139         1.954390        -0.571227
 H         4.961708         0.488092        -1.127348
 H         3.136955         0.473850        -2.844772
