19
Iteration:  2301charge 0 multiplicity 1
 C        -0.095858         0.243234         0.223591
 C         1.362832        -0.174517        -0.222529
 C         1.701929        -1.594789        -0.702555
 C         3.087813        -1.057493        -1.051849
 C         3.544885        -0.221109         0.158898
 C         3.941279         1.044650        -0.718722
 C         2.953858         0.408368        -1.718915
 O         1.599328         0.787520        -1.302111
 O         2.352818         0.121854         0.860403
 H        -0.156355        -0.156679         1.270646
 H        -0.213810         1.344589         0.385274
 H        -0.818603        -0.203775        -0.413301
 H         1.690808        -2.413269         0.071212
 H         1.227108        -2.057394        -1.634595
 H         3.872136        -1.701520        -1.413481
 H         4.288003        -0.596473         0.897102
 H         3.618593         2.075710        -0.458192
 H         4.991108         1.055347        -0.911915
 H         2.913876         0.584244        -2.805020
