19
Iteration:  1456
 C        -0.016371         0.056660         0.403010
 C         1.296424        -0.052699        -0.232719
 C         1.661638        -1.485581        -0.796337
 C         3.102012        -0.985036        -1.031005
 C         3.609364        -0.209157         0.226418
 C         4.036027         0.921227        -0.759515
 C         2.894009         0.449279        -1.721382
 O         1.576843         0.859956        -1.353880
 O         2.303120         0.081049         0.793025
 H        -0.075510        -0.825830         1.078771
 H        -0.185316         0.891493         1.114616
 H        -0.874099         0.030604        -0.355624
 H         1.543061        -2.281113        -0.069593
 H         1.103374        -1.822747        -1.647009
 H         3.858361        -1.734416        -1.379930
 H         4.330006        -0.647533         0.896554
 H         3.806576         1.853605        -0.285529
 H         4.940706         0.754192        -1.184382
 H         3.082349         0.658167        -2.725334
