19
Iteration:  1827charge 0 multiplicity 1
 C        -0.052401         0.146898         0.323199
 C         1.272575        -0.163302        -0.176524
 C         1.692207        -1.501028        -0.751929
 C         3.127898        -1.056739        -1.029801
 C         3.595865        -0.201128         0.170091
 C         3.993772         0.979966        -0.748908
 C         2.940025         0.458539        -1.761765
 O         1.607906         0.745678        -1.276838
 O         2.299958         0.148598         0.796645
 H        -0.511055        -0.564790         0.964417
 H        -0.160686         1.099929         0.838136
 H        -0.692887         0.250448        -0.497921
 H         1.610628        -2.268694         0.071817
 H         1.091622        -1.727127        -1.702235
 H         3.815044        -1.725881        -1.457622
 H         4.256383        -0.536423         0.970463
 H         3.931946         2.001490        -0.259044
 H         5.035100         0.802132        -1.201242
 H         2.867369         0.662290        -2.800737
