19
Iteration:  1000charge 0 multiplicity 1
 C        -0.032942         0.155722         0.421114
 C         1.289139        -0.194647        -0.224787
 C         1.686994        -1.496593        -0.824933
 C         3.089026        -1.062977        -1.173456
 C         3.562374        -0.250306         0.135620
 C         3.943200         1.045152        -0.696225
 C         2.946771         0.448588        -1.710584
 O         1.626150         0.790611        -1.244623
 O         2.335791         0.121063         0.783524
 H        -0.021749        -0.274882         1.534634
 H        -0.106593         1.272856         0.713367
 H        -1.053463        -0.163061         0.040570
 H         1.738668        -2.223491         0.054217
 H         1.112283        -1.957215        -1.601860
 H         3.863153        -1.754270        -1.493024
 H         4.137694        -0.795469         0.879760
 H         3.678811         2.008491        -0.362991
 H         4.957978         0.941654        -1.271579
 H         3.095685         0.880244        -2.706961
