19
Iteration:  3869
 C        -0.058119         0.154263         0.268270
 C         1.324162        -0.174587        -0.217502
 C         1.720893        -1.481008        -0.729932
 C         3.128098        -1.061178        -1.025179
 C         3.523883        -0.149504         0.208502
 C         3.908107         1.003653        -0.697907
 C         2.996293         0.407201        -1.807893
 O         1.601663         0.753346        -1.340114
 O         2.321754         0.138639         0.926853
 H        -0.230783        -0.651916         1.012304
 H        -0.314073         1.220282         0.441300
 H        -0.745707        -0.080216        -0.677408
 H         1.668887        -2.283839        -0.027960
 H         1.066827        -1.664957        -1.622951
 H         3.700690        -1.923616        -1.394119
 H         4.382797        -0.636150         0.692037
 H         3.646102         2.015699        -0.297259
 H         4.998812         0.995702        -1.072293
 H         3.140307         0.614121        -2.880178
