19
Iteration:  1146charge 0 multiplicity 1
 C         0.056472         0.141478         0.422136
 C         1.299109        -0.085693        -0.212372
 C         1.714669        -1.459624        -0.760708
 C         3.081787        -0.996017        -1.174436
 C         3.543307        -0.171410         0.180958
 C         3.972581         1.025722        -0.672086
 C         2.945480         0.418227        -1.783250
 O         1.562533         0.769517        -1.320121
 O         2.293912        -0.020791         0.847867
 H        -0.161455        -0.492952         1.281107
 H         0.025280         1.213753         0.635867
 H        -0.775020         0.030512        -0.306473
 H         1.601495        -1.989324         0.161516
 H         1.099538        -1.905236        -1.559509
 H         3.780032        -1.643425        -1.696600
 H         4.223504        -0.796366         0.764614
 H         3.815815         1.987544        -0.183213
 H         4.963101         0.829893        -1.096785
 H         2.969449         0.573183        -2.913050
