19
Iteration:   459
 C        -0.028931         0.063736         0.413782
 C         1.316565        -0.177711        -0.155060
 C         1.683103        -1.503433        -0.809022
 C         3.086837        -1.014346        -1.166991
 C         3.469118        -0.183233         0.091710
 C         4.035451         0.935215        -0.752634
 C         2.922242         0.508560        -1.770285
 O         1.620544         0.814591        -1.185948
 O         2.315474         0.112674         0.845068
 H        -0.327658        -0.501786         1.354012
 H         0.032533         1.164839         0.656362
 H        -0.860715        -0.023375        -0.341687
 H         1.759405        -2.262453        -0.007751
 H         1.056193        -1.781599        -1.640525
 H         3.854806        -1.632278        -1.713699
 H         4.296431        -0.601951         0.693322
 H         3.985009         2.008002        -0.340407
 H         5.046170         0.713153        -0.959409
 H         2.973895         0.797300        -2.925669
