19
Iteration:  2359
 C        -0.057396         0.079402         0.313288
 C         1.305987        -0.150032        -0.169776
 C         1.650764        -1.492146        -0.803194
 C         3.113570        -1.035691        -1.009310
 C         3.636202        -0.212952         0.256928
 C         4.055383         0.938738        -0.718773
 C         2.856744         0.404483        -1.630611
 O         1.539171         0.758808        -1.382122
 O         2.342370         0.250804         0.770525
 H        -0.426016        -0.602488         0.998155
 H        -0.089276         1.104217         0.510352
 H        -0.688572        -0.047308        -0.463377
 H         1.476006        -2.280503        -0.027308
 H         1.207726        -1.721534        -1.783258
 H         3.773683        -1.733886        -1.549793
 H         4.415784        -0.387972         0.984266
 H         3.902257         1.965966        -0.352325
 H         5.082983         0.939184        -1.134905
 H         3.110245         0.492731        -2.722233
