19
Iteration:  4278
 C        -0.054957         0.156584         0.320878
 C         1.324340        -0.095561        -0.213874
 C         1.755667        -1.433719        -0.748450
 C         3.172158        -1.025787        -1.037510
 C         3.473520        -0.172653         0.257456
 C         3.989081         0.965477        -0.743476
 C         2.990578         0.391567        -1.766748
 O         1.619317         0.707694        -1.367671
 O         2.200832         0.124130         0.826212
 H        -0.189849        -0.476405         1.227848
 H        -0.167929         1.201806         0.687371
 H        -0.908820        -0.107167        -0.388106
 H         1.843067        -2.147991        -0.035681
 H         1.101027        -1.903025        -1.438958
 H         3.878384        -1.709828        -1.540898
 H         4.080089        -0.551551         1.079537
 H         3.868253         2.010602        -0.353207
 H         5.080247         0.807699        -1.003697
 H         3.092736         0.398402        -2.858944
