19
Iteration:   543charge 0 multiplicity 1
 C        -0.140889         0.126480         0.373893
 C         1.264253        -0.106338        -0.214478
 C         1.762246        -1.458302        -0.705363
 C         3.113333        -0.977906        -1.129253
 C         3.617383        -0.278249         0.139302
 C         4.003840         0.926707        -0.756431
 C         2.905587         0.501088        -1.810773
 O         1.554846         0.915073        -1.222635
 O         2.330754        -0.036235         0.810485
 H        -0.122855        -0.691781         1.180657
 H         0.024947         1.096822         0.830653
 H        -0.896770         0.228428        -0.313317
 H         1.952023        -2.011765         0.228592
 H         1.094350        -2.029661        -1.403672
 H         3.807760        -1.687966        -1.614907
 H         4.372702        -0.707491         0.761413
 H         3.933653         1.949812        -0.369440
 H         5.027377         0.516409        -1.126912
 H         2.930217         0.738215        -2.808229
