19
Iteration:  4831
 C        -0.048268         0.089879         0.301502
 C         1.357829        -0.070489        -0.236336
 C         1.699291        -1.499132        -0.717535
 C         3.164377        -1.033107        -0.909816
 C         3.500582        -0.150777         0.270703
 C         3.945408         0.969222        -0.724522
 C         2.932681         0.367636        -1.703120
 O         1.589375         0.699896        -1.429374
 O         2.307008         0.215814         0.751894
 H        -0.443983        -0.804988         0.820403
 H         0.093439         0.994182         0.924216
 H        -0.744888         0.426821        -0.497040
 H         1.646315        -2.296203         0.000929
 H         1.174979        -1.674858        -1.562590
 H         3.866868        -1.705057        -1.351794
 H         4.149101        -0.617851         1.007907
 H         3.825077         1.950267        -0.278207
 H         4.932313         0.814117        -1.212744
 H         3.141481         0.447237        -2.850067
