19
Iteration:  3963charge 0 multiplicity 1
 C        -0.084451         0.110378         0.285748
 C         1.276549        -0.130431        -0.195641
 C         1.593186        -1.555834        -0.728363
 C         3.168126        -1.057902        -0.996948
 C         3.617611        -0.184843         0.189384
 C         3.945971         1.040942        -0.727455
 C         2.972650         0.368636        -1.701495
 O         1.648616         0.810324        -1.348774
 O         2.328806         0.168810         0.840392
 H        -0.276032        -0.645433         1.022855
 H        -0.451408         1.132235         0.400024
 H        -0.671972        -0.182812        -0.575589
 H         1.471471        -2.570969        -0.134617
 H         1.148389        -1.720493        -1.772209
 H         3.805847        -1.751894        -1.654332
 H         4.257732        -0.438143         1.066219
 H         3.721157         2.015037        -0.283812
 H         4.933108         0.993797        -1.110561
 H         3.157908         0.676123        -2.786423
