19
Iteration:   929
 C        -0.070787         0.088230         0.436549
 C         1.288380        -0.086046        -0.261005
 C         1.684060        -1.530092        -0.778977
 C         3.072077        -1.008908        -1.115848
 C         3.609545        -0.190181         0.181990
 C         4.022234         0.994032        -0.795633
 C         2.883106         0.397474        -1.657304
 O         1.583164         0.917254        -1.234074
 O         2.371474         0.027535         0.768071
 H        -0.412626        -0.694559         1.144168
 H        -0.040203         1.021839         0.979576
 H        -0.809218         0.148360        -0.436763
 H         1.769065        -2.360934        -0.086197
 H         1.053667        -1.906072        -1.654406
 H         3.867290        -1.656526        -1.513376
 H         4.336605        -0.690993         0.876835
 H         3.802939         2.032424        -0.396694
 H         4.895248         0.875438        -1.265636
 H         3.007318         0.407032        -2.772835
