19
Iteration:  4146
 C        -0.049983         0.138762         0.354320
 C         1.285989        -0.148019        -0.226589
 C         1.744965        -1.490434        -0.698339
 C         3.138022        -1.007981        -1.135877
 C         3.495279        -0.161984         0.234670
 C         3.958293         0.953227        -0.680136
 C         2.983611         0.350335        -1.731422
 O         1.646174         0.789572        -1.363664
 O         2.257205         0.156345         0.781484
 H        -0.142378        -0.318824         1.369166
 H        -0.247460         1.271192         0.418461
 H        -0.862643        -0.334925        -0.322330
 H         1.846065        -2.197647         0.143057
 H         1.250714        -1.791332        -1.655580
 H         3.816096        -1.890514        -1.381976
 H         4.124688        -0.499060         1.072085
 H         3.545226         1.963795        -0.385378
 H         5.033222         0.929818        -1.005245
 H         3.115161         0.390292        -2.806776
