19
Iteration:  2462
 C        -0.036302         0.165968         0.311937
 C         1.294702        -0.065392        -0.336568
 C         1.703354        -1.506896        -0.637092
 C         3.134168        -1.042357        -0.962798
 C         3.502237        -0.203526         0.180416
 C         3.978336         1.009093        -0.709581
 C         2.924404         0.434880        -1.738933
 O         1.598911         0.734773        -1.360763
 O         2.314585         0.066376         0.769673
 H        -0.061779        -0.221946         1.332633
 H        -0.238993         1.154386         0.735369
 H        -0.880329        -0.104403        -0.379851
 H         1.757098        -1.970669         0.303482
 H         1.234295        -1.898157        -1.535621
 H         3.869435        -1.690924        -1.409276
 H         4.329370        -0.740341         0.692832
 H         3.768796         2.000489        -0.221782
 H         4.981250         0.744226        -1.089522
 H         3.217626         0.666947        -2.731181
