19
Iteration:   277
 C        -0.021977         0.092344         0.402705
 C         1.390816        -0.073091        -0.125650
 C         1.702372        -1.488166        -0.897033
 C         3.054470        -1.060267        -1.163367
 C         3.594896        -0.261782         0.147872
 C         3.893344         0.944205        -0.768233
 C         2.853345         0.402427        -1.721610
 O         1.625476         0.825813        -1.215347
 O         2.351041         0.186027         0.874903
 H        -0.236142        -0.633995         1.150972
 H        -0.206516         1.093389         0.825364
 H        -0.738384        -0.096291        -0.439197
 H         1.600751        -2.486874        -0.404838
 H         0.994119        -1.404462        -1.737911
 H         3.762160        -1.729035        -1.640591
 H         4.450652        -0.571722         0.822731
 H         3.870455         1.899159        -0.112243
 H         4.939324         0.879273        -1.214299
 H         2.940779         0.459193        -2.758647
