19
Iteration:  3175
 C        -0.089263         0.100495         0.291272
 C         1.336134        -0.147774        -0.221132
 C         1.741111        -1.493735        -0.765862
 C         3.128563        -1.024034        -0.968646
 C         3.572729        -0.140290         0.230142
 C         4.010804         0.967440        -0.776082
 C         2.925774         0.370857        -1.720515
 O         1.598134         0.761424        -1.316847
 O         2.269189         0.180222         0.819312
 H        -0.435919        -0.549683         1.136083
 H        -0.178953         1.198648         0.602351
 H        -0.681518        -0.062291        -0.612285
 H         1.545571        -2.252617        -0.017771
 H         1.134972        -1.631804        -1.641184
 H         3.767209        -1.758563        -1.522075
 H         4.194813        -0.416154         1.145656
 H         3.917147         1.974453        -0.339275
 H         4.981599         0.743550        -1.179031
 H         2.975852         0.356335        -2.905162
