19
Iteration:  4809
 C        -0.170885         0.125675         0.308718
 C         1.279010        -0.013301        -0.184900
 C         1.674085        -1.530388        -0.687634
 C         3.183148        -1.074757        -1.069502
 C         3.632703        -0.183939         0.157087
 C         3.989180         1.025275        -0.687369
 C         3.024671         0.331597        -1.723606
 O         1.627764         0.702384        -1.455220
 O         2.248281         0.210818         0.886401
 H        -0.415291        -0.784225         0.893108
 H        -0.285753         1.061996         0.904403
 H        -0.923082         0.244223        -0.511518
 H         1.862183        -2.145539         0.184298
 H         1.189634        -2.048203        -1.363845
 H         3.830892        -1.784563        -1.551559
 H         4.312501        -0.496534         0.956564
 H         3.503863         1.963119        -0.483532
 H         5.079528         1.029455        -0.860971
 H         3.093920         0.451167        -2.887859
