19
Iteration:  4467charge 0 multiplicity 1
 C        -0.141976         0.119915         0.279636
 C         1.300637        -0.054557        -0.149121
 C         1.701575        -1.499103        -0.763140
 C         3.135550        -1.070706        -0.987832
 C         3.595128        -0.161502         0.248896
 C         3.979507         0.985540        -0.746582
 C         3.026277         0.334200        -1.735783
 O         1.561949         0.737128        -1.430266
 O         2.321032         0.168335         0.845625
 H        -0.482039        -0.617508         1.070399
 H        -0.199777         1.145337         0.832113
 H        -0.858158         0.128520        -0.577245
 H         1.523678        -2.359658        -0.214143
 H         1.192705        -1.686914        -1.629381
 H         3.904917        -1.767335        -1.190741
 H         4.289701        -0.444096         1.087891
 H         3.683023         2.037260        -0.444841
 H         5.096495         1.114902        -0.931151
 H         3.169042         0.377521        -2.869256
