19
Iteration:  1606charge 0 multiplicity 1
 C        -0.125501         0.082872         0.358466
 C         1.338830        -0.105717        -0.125455
 C         1.699710        -1.426956        -0.710864
 C         3.088972        -0.984161        -1.196768
 C         3.598651        -0.213891         0.174711
 C         4.046632         0.903560        -0.724691
 C         2.919463         0.408626        -1.735200
 O         1.609298         0.760194        -1.283946
 O         2.289582         0.144916         0.820800
 H        -0.594337        -0.571419         1.048486
 H        -0.373224         1.068449         0.652373
 H        -0.702594        -0.042015        -0.431185
 H         1.668995        -2.312987        -0.077199
 H         1.149857        -1.691826        -1.610172
 H         3.825006        -1.609261        -1.747802
 H         4.271594        -0.556814         0.948966
 H         3.977563         1.976347        -0.416767
 H         5.066827         0.816444        -1.167929
 H         3.134324         0.731032        -2.732015
