19
Iteration:  1909charge 0 multiplicity 1
 C        -0.049755         0.210128         0.401628
 C         1.374203        -0.133855        -0.184473
 C         1.757671        -1.400446        -0.807214
 C         3.125598        -0.991556        -1.084971
 C         3.564555        -0.248448         0.173684
 C         3.997163         0.957253        -0.622762
 C         2.899095         0.348691        -1.684281
 O         1.509429         0.664683        -1.397544
 O         2.295518         0.180638         0.793778
 H        -0.258766        -0.296400         1.401957
 H        -0.031723         1.317163         0.442773
 H        -0.833121        -0.154422        -0.340868
 H         1.793079        -2.266373        -0.210827
 H         1.204433        -1.644982        -1.680789
 H         3.992898        -1.587022        -1.543872
 H         4.192576        -0.830105         0.875760
 H         3.714058         1.920402        -0.196334
 H         4.959194         0.818935        -1.064095
 H         2.969684         0.557087        -2.789098
