19
Iteration:  4333
 C        -0.100440         0.195268         0.218395
 C         1.305952        -0.172319        -0.148586
 C         1.732648        -1.564131        -0.708188
 C         3.150594        -1.017193        -1.043503
 C         3.504677        -0.153518         0.197022
 C         3.983451         0.946153        -0.755849
 C         2.940694         0.470992        -1.754515
 O         1.645055         0.729756        -1.336815
 O         2.269419         0.166870         0.895955
 H        -0.238220        -0.164645         1.276443
 H        -0.181457         1.288710         0.152240
 H        -0.766644        -0.406083        -0.475226
 H         1.656935        -2.335359        -0.066946
 H         1.011865        -1.628747        -1.515259
 H         4.013275        -1.637542        -1.436807
 H         4.204154        -0.662711         0.874310
 H         3.884393         1.919144        -0.247006
 H         4.979752         0.658742        -1.207790
 H         3.198495         0.423520        -2.818862
