19
Iteration:  3633charge 0 multiplicity 1
 C        -0.140729         0.182081         0.308869
 C         1.352488        -0.149747        -0.237492
 C         1.737998        -1.546889        -0.709260
 C         3.120190        -1.015377        -1.079930
 C         3.553733        -0.140664         0.224585
 C         3.915706         1.041619        -0.736623
 C         3.027757         0.367310        -1.746817
 O         1.657967         0.738952        -1.346269
 O         2.267599         0.099706         0.845460
 H        -0.539154        -0.615908         0.877242
 H        -0.287641         1.106047         0.814124
 H        -0.879750         0.315474        -0.516685
 H         1.776744        -2.117991         0.313050
 H         1.062044        -2.049045        -1.491989
 H         3.789469        -1.706277        -1.519091
 H         4.413671        -0.343162         0.954507
 H         3.714504         2.082269        -0.408845
 H         5.043445         1.017338        -0.922021
 H         2.902477         0.292235        -2.834738
