19
Iteration:  4420
 C        -0.140977         0.215247         0.272087
 C         1.274879        -0.148950        -0.247364
 C         1.831952        -1.542368        -0.679732
 C         3.179851        -1.025628        -0.948701
 C         3.581468        -0.140272         0.189109
 C         3.970478         0.924100        -0.752191
 C         2.944296         0.390970        -1.753056
 O         1.587703         0.818012        -1.356760
 O         2.270558         0.122860         0.864495
 H        -0.718689        -0.613909         0.771778
 H        -0.340569         1.115385         0.841146
 H        -0.710914         0.264849        -0.692210
 H         1.654035        -2.192804         0.135038
 H         1.341428        -2.117557        -1.552250
 H         3.776178        -1.867908        -1.456021
 H         4.264452        -0.669074         0.882241
 H         3.899647         1.959229        -0.352990
 H         4.986706         0.840614        -1.256818
 H         3.020523         0.417020        -2.867059
