19
Iteration:   392charge 0 multiplicity 1
 C         0.032491         0.162620         0.426770
 C         1.288752        -0.159511        -0.200893
 C         1.777323        -1.519212        -0.853744
 C         3.108301        -0.974889        -1.201531
 C         3.515388        -0.209701         0.135488
 C         3.941679         0.962159        -0.792770
 C         2.881237         0.408248        -1.728883
 O         1.652781         0.839942        -1.148131
 O         2.233317         0.052514         0.840603
 H         0.039081        -0.458408         1.454760
 H         0.153994         1.270501         0.577691
 H        -0.807206        -0.047814        -0.212069
 H         1.785814        -2.103001         0.101408
 H         1.038574        -1.956876        -1.601717
 H         3.925981        -1.491640        -1.813612
 H         4.098875        -0.650033         0.893703
 H         3.831117         2.019617        -0.547750
 H         5.005649         0.778856        -0.922925
 H         2.812249         0.583505        -2.885257
