19
Iteration:  4342
 C        -0.085918         0.149452         0.243858
 C         1.310780        -0.142430        -0.174096
 C         1.673925        -1.582767        -0.735858
 C         3.124972        -1.016740        -1.017272
 C         3.514722        -0.131624         0.218704
 C         4.041187         0.982442        -0.724531
 C         2.961445         0.424501        -1.753979
 O         1.621180         0.747497        -1.370184
 O         2.280859         0.128537         0.875245
 H        -0.209729        -0.122993         1.280620
 H        -0.182666         1.220027         0.181788
 H        -0.932398        -0.168589        -0.388596
 H         1.771187        -2.337498         0.079416
 H         1.011081        -1.933389        -1.645602
 H         3.858443        -1.689767        -1.484084
 H         4.188104        -0.352021         1.043696
 H         4.149118         2.057454        -0.466881
 H         5.081219         0.718331        -1.013711
 H         2.945089         0.657483        -2.813356
