19
Iteration:  1152
 C        -0.011789         0.176005         0.405438
 C         1.340141        -0.159671        -0.215882
 C         1.679235        -1.454027        -0.738118
 C         3.093836        -0.965425        -1.106687
 C         3.587748        -0.207540         0.136389
 C         3.978225         1.004267        -0.718950
 C         2.945717         0.457822        -1.722507
 O         1.540272         0.789596        -1.336177
 O         2.317624        -0.029851         0.822876
 H        -0.149493        -0.452563         1.286432
 H        -0.010682         1.235252         0.679931
 H        -0.819877        -0.116252        -0.352932
 H         1.667731        -2.188154         0.135139
 H         1.027452        -1.768558        -1.560044
 H         3.751448        -1.721326        -1.595731
 H         4.190319        -0.785302         0.857252
 H         3.747864         2.018882        -0.313185
 H         5.022605         0.979043        -1.110343
 H         3.094833         0.684880        -2.757490
