19
Iteration:  1428charge 0 multiplicity 1
 C        -0.125302         0.152274         0.366737
 C         1.293888        -0.186506        -0.116355
 C         1.711922        -1.514438        -0.758767
 C         3.119400        -0.943094        -1.229692
 C         3.556829        -0.187204         0.152094
 C         4.002516         0.945372        -0.704695
 C         2.939918         0.438098        -1.769660
 O         1.619238         0.786789        -1.290353
 O         2.300734         0.105671         0.856136
 H        -0.312944        -0.425257         1.270002
 H        -0.096398         1.187201         0.715802
 H        -0.895460         0.069830        -0.391509
 H         1.985397        -2.320509        -0.015420
 H         0.991158        -1.917709        -1.555877
 H         3.799749        -1.695031        -1.566866
 H         4.342749        -0.695769         0.753188
 H         3.750473         1.901607        -0.200314
 H         5.176004         0.718449        -0.939394
 H         3.153864         0.707290        -2.864062
