19
Iteration:   491
 C        -0.024989         0.177680         0.468907
 C         1.290943        -0.055787        -0.223929
 C         1.727618        -1.471802        -0.852147
 C         3.146347        -1.061721        -1.051465
 C         3.595917        -0.253065         0.175687
 C         3.888516         1.009008        -0.758779
 C         2.876529         0.419119        -1.720259
 O         1.568889         0.851926        -1.327821
 O         2.362786        -0.038092         0.842282
 H        -0.212223        -0.685814         1.160196
 H         0.124848         1.056966         1.105647
 H        -0.750421         0.256507        -0.340396
 H         1.422355        -2.280575        -0.182118
 H         1.280218        -1.776105        -1.797280
 H         3.870327        -1.642937        -1.682872
 H         4.365438        -0.527424         0.869409
 H         3.705264         2.053822        -0.334041
 H         4.877687         1.088098        -1.139208
 H         3.004928         0.533387        -2.811115
