19
Iteration:   111
 C         0.030678         0.154819         0.410965
 C         1.393522        -0.153167        -0.168109
 C         1.678667        -1.465983        -0.822401
 C         3.069664        -1.007669        -1.203459
 C         3.516278        -0.179966         0.199019
 C         3.834447         0.973930        -0.753513
 C         2.924932         0.425695        -1.778865
 O         1.628429         0.840016        -1.346019
 O         2.346337        -0.012621         0.948446
 H        -0.290508        -0.702843         1.015105
 H         0.111676         1.033625         0.992054
 H        -0.756632         0.314587        -0.228902
 H         1.960681        -2.167645        -0.070402
 H         0.918433        -1.686696        -1.547752
 H         3.839400        -1.740781        -1.530535
 H         4.241508        -0.670635         0.863942
 H         3.698558         2.057824        -0.363187
 H         4.879593         0.891271        -1.046188
 H         3.029624         0.719934        -2.792658
