19
Iteration:  3314
 C        -0.069725         0.144348         0.226396
 C         1.287441        -0.077082        -0.186541
 C         1.734329        -1.544008        -0.744031
 C         3.124277        -0.972794        -1.018659
 C         3.595147        -0.213103         0.234352
 C         4.054920         0.990748        -0.770930
 C         2.888551         0.413898        -1.720561
 O         1.565119         0.721592        -1.309707
 O         2.281239         0.149390         0.835470
 H        -0.338586        -0.128889         1.251692
 H        -0.487800         1.165711         0.206967
 H        -0.703211        -0.418219        -0.412878
 H         1.637395        -2.350720         0.039979
 H         1.091223        -1.812789        -1.670722
 H         3.930789        -1.782913        -1.071458
 H         4.324179        -0.587498         0.995605
 H         3.922949         2.110873        -0.583472
 H         5.102851         0.705434        -1.094852
 H         3.203750         0.523135        -2.777678
