19
Iteration:  1389
 C        -0.109211         0.181544         0.349029
 C         1.270662        -0.100568        -0.185795
 C         1.729166        -1.411798        -0.827196
 C         3.149210        -1.020686        -1.090853
 C         3.664503        -0.183486         0.170656
 C         3.895061         0.944853        -0.708945
 C         2.939438         0.376972        -1.768325
 O         1.596860         0.810431        -1.300288
 O         2.359070        -0.030925         0.880805
 H        -0.442170        -0.233185         1.397338
 H        -0.267487         1.308187         0.556652
 H        -0.894928        -0.164973        -0.311966
 H         1.693063        -2.308599        -0.206896
 H         1.060464        -1.562906        -1.635528
 H         3.890666        -1.730727        -1.523532
 H         4.383327        -0.400506         0.962042
 H         3.665443         1.956190        -0.355277
 H         4.856709         0.935514        -1.070461
 H         2.906147         0.543007        -2.827698
