19
Iteration:  3682charge 0 multiplicity 1
 C        -0.149145         0.101997         0.299745
 C         1.299322        -0.102471        -0.204405
 C         1.694963        -1.475494        -0.716862
 C         3.175769        -0.980720        -1.105865
 C         3.522835        -0.161163         0.219540
 C         4.012632         0.975295        -0.701612
 C         2.981369         0.363326        -1.683046
 O         1.629910         0.706184        -1.370107
 O         2.300502         0.160323         0.825872
 H        -0.150272        -0.513599         1.233310
 H        -0.430464         1.163371         0.532251
 H        -0.953049        -0.265777        -0.345197
 H         1.652799        -2.247801        -0.007135
 H         1.232490        -1.800085        -1.609238
 H         3.912379        -1.741776        -1.450298
 H         4.150702        -0.390497         1.035245
 H         3.886028         2.054631        -0.503257
 H         4.972142         0.838267        -1.207937
 H         2.996443         0.651472        -2.725749
