19
Iteration:  3487
 C         0.021959         0.161688         0.301443
 C         1.299715        -0.169284        -0.249066
 C         1.752162        -1.546817        -0.710228
 C         3.056883        -0.986853        -1.001175
 C         3.537313        -0.169251         0.201665
 C         3.974153         0.992690        -0.693934
 C         2.942801         0.468863        -1.721648
 O         1.628652         0.740013        -1.414467
 O         2.205755         0.078463         0.841200
 H        -0.136391        -0.350722         1.296341
 H        -0.146688         1.289047         0.397025
 H        -0.819235        -0.014632        -0.345614
 H         1.777219        -2.195673         0.209794
 H         1.265540        -1.866529        -1.721055
 H         4.054748        -1.588666        -1.193684
 H         4.326004        -0.486245         0.942611
 H         4.027391         2.067218        -0.461774
 H         4.885568         0.734960        -1.163144
 H         2.996062         0.561224        -2.780779
