19
Iteration:   735
 C         0.002786         0.179690         0.350891
 C         1.340760        -0.090394        -0.194302
 C         1.655362        -1.467103        -0.839718
 C         3.119138        -1.030945        -1.069202
 C         3.614011        -0.247256         0.168339
 C         3.936251         0.963186        -0.745493
 C         2.860282         0.468589        -1.674984
 O         1.487452         0.776331        -1.225940
 O         2.441918         0.047302         0.802913
 H        -0.136647        -0.683041         1.080594
 H        -0.138896         1.137634         0.830039
 H        -0.720533         0.125617        -0.487477
 H         1.453443        -2.360945        -0.280330
 H         1.158748        -1.470711        -1.826059
 H         3.918969        -1.526665        -1.612152
 H         4.257061        -0.745431         0.942941
 H         3.804978         1.967700        -0.131807
 H         4.917163         0.853033        -1.321643
 H         2.880570         0.476213        -2.831920
