19
Iteration:  1061
 C        -0.104608         0.146611         0.322534
 C         1.338001        -0.168356        -0.115586
 C         1.737177        -1.511043        -0.720128
 C         3.076358        -1.005859        -1.182075
 C         3.553677        -0.178515         0.096724
 C         4.035168         0.960812        -0.735541
 C         2.853401         0.379982        -1.800275
 O         1.644038         0.864810        -1.180252
 O         2.291271         0.096253         0.799715
 H        -0.146404        -0.646823         1.126691
 H        -0.152251         1.024085         0.974622
 H        -0.752404         0.052709        -0.463733
 H         1.826511        -2.269487         0.080049
 H         1.085043        -1.957001        -1.515742
 H         3.819372        -1.636832        -1.655259
 H         4.243357        -0.780016         0.763055
 H         3.812838         2.018976        -0.224642
 H         5.151091         1.094283        -0.957725
 H         2.883103         0.504912        -2.891952
