19
Iteration:   348
 C        -0.001961         0.139592         0.403209
 C         1.389875        -0.143818        -0.125266
 C         1.634010        -1.399348        -0.780089
 C         3.066990        -0.989453        -1.211975
 C         3.609321        -0.250437         0.119756
 C         3.943232         1.024914        -0.627420
 C         2.885579         0.391648        -1.755224
 O         1.552645         0.716636        -1.347465
 O         2.393907         0.108552         0.869451
 H        -0.426056        -0.705540         1.117316
 H         0.076870         1.083330         0.997689
 H        -0.687307         0.246468        -0.438353
 H         1.740900        -2.322802        -0.171576
 H         0.889871        -1.635349        -1.608947
 H         3.668319        -1.804101        -1.706697
 H         4.276405        -0.728303         0.797043
 H         3.738929         1.919334        -0.086185
 H         4.918921         1.145295        -1.093792
 H         2.943650         0.582196        -2.898684
