19
Iteration:  4871
 C        -0.143338         0.176154         0.259000
 C         1.276502        -0.159487        -0.153866
 C         1.735489        -1.452937        -0.666152
 C         3.136124        -0.986967        -1.006522
 C         3.490995        -0.153660         0.173119
 C         3.999456         1.007257        -0.806448
 C         2.994211         0.357665        -1.729586
 O         1.671242         0.713069        -1.345077
 O         2.267821         0.094299         0.833391
 H        -0.554893        -0.514473         1.011049
 H        -0.084577         1.139792         0.704928
 H        -0.751308         0.123074        -0.668971
 H         1.687547        -2.214639         0.212419
 H         1.084562        -1.932052        -1.593216
 H         4.026209        -1.583121        -1.165942
 H         4.178782        -0.410630         1.002633
 H         4.010851         2.107978        -0.824372
 H         5.048680         0.696683        -0.956576
 H         3.061650         0.472892        -2.834412
