19
Iteration:  4647
 C        -0.105705         0.129249         0.233935
 C         1.343147        -0.059732        -0.205969
 C         1.764769        -1.496288        -0.647293
 C         3.095142        -1.022300        -1.021085
 C         3.563340        -0.211865         0.297364
 C         3.903693         1.040864        -0.794150
 C         3.023164         0.360585        -1.750478
 O         1.632211         0.759558        -1.385773
 O         2.274936         0.081671         0.853336
 H        -0.453502        -0.731108         0.829448
 H        -0.311351         1.015007         0.797046
 H        -0.674168         0.323491        -0.697328
 H         1.715811        -2.102485         0.318944
 H         1.045993        -1.830792        -1.481711
 H         3.775401        -1.689820        -1.586522
 H         4.295188        -0.406316         1.094402
 H         3.514389         2.048265        -0.634773
 H         4.932599         1.009031        -1.160163
 H         3.204662         0.278924        -2.772199
