19
Iteration:  1589charge 0 multiplicity 1
 C        -0.069830         0.066034         0.370978
 C         1.258989        -0.071774        -0.245661
 C         1.747971        -1.546420        -0.801831
 C         3.119017        -1.045954        -1.064137
 C         3.510967        -0.236724         0.191082
 C         4.011351         0.921445        -0.785303
 C         2.959559         0.416210        -1.757522
 O         1.620421         0.929838        -1.225543
 O         2.291060         0.159306         0.810878
 H        -0.047831        -0.713379         1.233147
 H        -0.169320         1.102120         0.845196
 H        -1.058231        -0.168324        -0.368563
 H         1.810477        -2.146516         0.110673
 H         1.074330        -1.946692        -1.589196
 H         3.873561        -1.730156        -1.450014
 H         4.185115        -0.767631         0.905142
 H         3.913347         1.944089        -0.422656
 H         5.035126         0.777553        -1.108316
 H         2.949822         0.460290        -2.878228
