19
Iteration:  3516charge 0 multiplicity 1
 C        -0.145833         0.199696         0.290508
 C         1.288969        -0.082134        -0.175133
 C         1.812927        -1.504502        -0.774898
 C         3.153425        -1.030911        -1.086698
 C         3.623681        -0.188191         0.183172
 C         3.955371         0.981275        -0.676800
 C         2.951201         0.349721        -1.701862
 O         1.610152         0.703343        -1.290086
 O         2.251726         0.145744         0.803819
 H        -0.321620        -0.269465         1.294609
 H        -0.474146         1.262231         0.142781
 H        -0.940038        -0.198085        -0.447559
 H         1.674803        -2.329137        -0.088267
 H         1.210228        -1.616403        -1.666473
 H         3.881156        -1.831872        -1.355679
 H         4.309813        -0.490494         1.005779
 H         3.713174         2.010223        -0.350607
 H         5.058866         1.070884        -1.020590
 H         3.029435         0.366991        -2.895781
