19
Iteration:  1355
 C        -0.025536         0.064156         0.401808
 C         1.293328        -0.131482        -0.253464
 C         1.707561        -1.483370        -0.788123
 C         3.095842        -1.011753        -1.130341
 C         3.536230        -0.186887         0.175902
 C         4.003461         0.931481        -0.693049
 C         2.934820         0.441772        -1.727658
 O         1.628245         0.812290        -1.229890
 O         2.256140         0.123893         0.754833
 H         0.104696        -0.621406         1.368725
 H         0.076214         1.222081         0.561331
 H        -0.902840        -0.082196        -0.265972
 H         1.709290        -2.154822         0.081465
 H         0.987252        -1.768173        -1.551626
 H         3.804786        -1.700310        -1.606660
 H         4.277442        -0.442880         0.966668
 H         3.900143         1.931439        -0.275032
 H         4.897946         0.700615        -1.160444
 H         3.050022         0.711976        -2.805774
