19
Iteration:  4370charge 0 multiplicity 1
 C        -0.107433         0.131666         0.322871
 C         1.298887        -0.079081        -0.253658
 C         1.742091        -1.477960        -0.732851
 C         3.227980        -1.033817        -0.953096
 C         3.494556        -0.225849         0.208178
 C         3.937790         0.937911        -0.737724
 C         2.966403         0.327376        -1.733327
 O         1.663204         0.799711        -1.401820
 O         2.250224         0.167958         0.814419
 H        -0.100394        -0.444580         1.272403
 H        -0.246999         1.186834         0.698881
 H        -1.037938        -0.062347        -0.191897
 H         1.639697        -2.381549        -0.029681
 H         1.167282        -1.766249        -1.583911
 H         3.981400        -1.618108        -1.430145
 H         4.120720        -0.464592         1.076480
 H         3.794725         1.944977        -0.331333
 H         4.954542         0.978568        -1.142982
 H         2.997304         0.443968        -2.854317
