19
Iteration:   568
 C        -0.048519         0.054877         0.416852
 C         1.339344        -0.074681        -0.131566
 C         1.608893        -1.493285        -0.889883
 C         3.067858        -1.031145        -1.099479
 C         3.605506        -0.197523         0.148572
 C         4.011569         0.956229        -0.793874
 C         2.895475         0.402241        -1.705237
 O         1.634961         0.877914        -1.232034
 O         2.333453         0.089116         0.856369
 H         0.043947        -0.666385         1.168602
 H        -0.305608         1.051017         0.759871
 H        -0.763493        -0.177507        -0.390556
 H         1.444923        -2.351177        -0.237308
 H         0.971886        -1.466520        -1.742584
 H         3.867079        -1.630841        -1.587988
 H         4.375961        -0.680453         0.689849
 H         3.816378         2.018955        -0.438809
 H         4.927590         0.690249        -1.253398
 H         2.973928         0.605201        -2.759736
