19
Iteration:   319charge 0 multiplicity 1
 C        -0.102207         0.102224         0.440762
 C         1.283318        -0.084151        -0.207155
 C         1.717938        -1.540188        -0.741955
 C         3.140143        -1.039824        -1.129289
 C         3.608446        -0.215551         0.102564
 C         4.015337         0.962701        -0.788267
 C         2.833241         0.429326        -1.722359
 O         1.637413         0.941293        -1.225794
 O         2.297283         0.029268         0.787408
 H        -0.317613        -0.793607         0.951470
 H        -0.107853         0.974807         1.062454
 H        -0.825379         0.265512        -0.313339
 H         1.821714        -2.041690         0.202013
 H         1.222387        -2.119056        -1.468264
 H         3.838480        -1.679838        -1.693534
 H         4.196524        -0.658565         0.955053
 H         4.129659         2.042735        -0.381824
 H         4.905571         0.773993        -1.381889
 H         2.832575         0.598107        -2.834862
