19
Iteration:  2891
 C        -0.185028         0.115836         0.270187
 C         1.295400        -0.066284        -0.219839
 C         1.777773        -1.477278        -0.798462
 C         3.147908        -1.108311        -0.946603
 C         3.624577        -0.161960         0.213486
 C         3.941576         0.938574        -0.795879
 C         2.977993         0.422298        -1.763361
 O         1.595461         0.788139        -1.295029
 O         2.289610         0.142073         0.863925
 H        -0.035346        -0.238817         1.321221
 H        -0.375428         1.195791         0.396980
 H        -1.077041        -0.392282        -0.220729
 H         1.737862        -2.263735         0.076393
 H         1.235813        -1.836096        -1.713430
 H         3.926911        -1.785679        -1.469179
 H         4.223807        -0.584013         1.003664
 H         3.927064         2.005501        -0.464264
 H         4.949735         0.637959        -1.221534
 H         2.969641         0.688235        -2.789709
