19
Iteration:  3972charge 0 multiplicity 1
 C        -0.100482         0.112666         0.223961
 C         1.354430        -0.097500        -0.130486
 C         1.677267        -1.473827        -0.731021
 C         3.078220        -1.034769        -1.104924
 C         3.585660        -0.142175         0.245771
 C         3.989217         1.012939        -0.722624
 C         2.965790         0.375464        -1.711034
 O         1.619317         0.754591        -1.333650
 O         2.279492         0.116490         0.837359
 H        -0.178353        -0.665646         1.041845
 H        -0.116019         1.175901         0.599842
 H        -0.683304        -0.122429        -0.640007
 H         1.738619        -2.417119        -0.132128
 H         1.112000        -1.795022        -1.577945
 H         3.767408        -1.755245        -1.606094
 H         4.245057        -0.385120         1.098257
 H         3.728925         2.019395        -0.402339
 H         5.014696         1.004828        -0.950289
 H         2.994594         0.234413        -2.789115
