19
Iteration:   317
 C        -0.108867         0.097844         0.437642
 C         1.260255        -0.088034        -0.207075
 C         1.723593        -1.528983        -0.743209
 C         3.135936        -1.029811        -1.117594
 C         3.622289        -0.199151         0.106212
 C         4.038620         0.973126        -0.796375
 C         2.838088         0.425405        -1.724412
 O         1.631884         0.936150        -1.222804
 O         2.295551         0.015625         0.789877
 H        -0.343078        -0.839407         1.003098
 H        -0.091610         0.993355         1.038191
 H        -0.812593         0.288117        -0.304960
 H         1.857548        -2.080208         0.155973
 H         1.157447        -2.055364        -1.475615
 H         3.816818        -1.703949        -1.712342
 H         4.170429        -0.608172         0.945028
 H         4.186984         1.982397        -0.363588
 H         4.857275         0.700676        -1.392552
 H         2.848874         0.555872        -2.893179
