19
Iteration:  3777
 C        -0.101715         0.184020         0.266250
 C         1.294441        -0.102019        -0.296984
 C         1.789773        -1.453727        -0.711731
 C         3.203633        -1.061996        -1.067186
 C         3.555622        -0.199453         0.241581
 C         3.920731         0.961696        -0.738937
 C         2.919643         0.396688        -1.756852
 O         1.605536         0.753546        -1.305394
 O         2.278383         0.111236         0.861996
 H        -0.147437        -0.651242         0.943714
 H        -0.187581         1.170784         0.641444
 H        -0.774809         0.122549        -0.482687
 H         1.533756        -2.095570         0.205102
 H         1.174564        -1.924268        -1.516842
 H         4.060641        -1.729853        -1.299661
 H         4.214548        -0.627180         1.025285
 H         3.639545         1.941643        -0.271186
 H         5.004727         1.097269        -0.979947
 H         2.960372         0.418559        -2.871986
