19
Iteration:  2704
 C        -0.059518         0.197308         0.389206
 C         1.287298        -0.008068        -0.198570
 C         1.748647        -1.484649        -0.739911
 C         3.171205        -1.023710        -1.074688
 C         3.543903        -0.157126         0.231325
 C         3.906917         1.008343        -0.704017
 C         2.990362         0.320956        -1.772088
 O         1.640909         0.744595        -1.364616
 O         2.237706         0.034221         0.793271
 H         0.085370        -0.137125         1.402822
 H        -0.364390         1.246879         0.224588
 H        -0.786769        -0.372421        -0.172984
 H         1.674523        -2.369541         0.024301
 H         1.161637        -1.735130        -1.630203
 H         3.966298        -1.730936        -1.465213
 H         4.181271        -0.558403         1.005756
 H         3.600335         2.044227        -0.539675
 H         5.008787         0.937631        -0.931787
 H         2.955799         0.238670        -2.818438
