19
Iteration:  4716charge 0 multiplicity 1
 C        -0.026261         0.107137         0.282214
 C         1.334843        -0.116848        -0.279985
 C         1.675498        -1.569772        -0.663246
 C         3.079887        -1.046692        -0.940503
 C         3.553473        -0.133697         0.277959
 C         3.940130         0.982272        -0.698297
 C         2.976936         0.414604        -1.730335
 O         1.613803         0.762409        -1.442754
 O         2.298354         0.179541         0.765595
 H         0.063507        -0.226670         1.296456
 H        -0.375833         1.142029         0.333005
 H        -0.845240        -0.350368        -0.155631
 H         1.809618        -2.273429         0.157950
 H         1.128755        -1.978624        -1.673468
 H         3.649307        -1.645331        -1.623733
 H         4.256143        -0.629531         0.950882
 H         3.670739         1.966804        -0.333558
 H         4.979671         0.785743        -0.849639
 H         3.260890         0.758204        -2.712299
