19
Iteration:   648
 C        -0.123651         0.243521         0.431982
 C         1.270532        -0.092638        -0.097356
 C         1.734857        -1.483291        -0.867024
 C         3.097105        -0.931572        -1.206947
 C         3.560715        -0.231536         0.123572
 C         3.940605         0.977090        -0.741333
 C         2.923403         0.417247        -1.745633
 O         1.657090         0.704575        -1.232207
 O         2.379086         0.039478         0.883299
 H        -0.436878        -0.511071         1.174205
 H        -0.199437         1.235719         0.870062
 H        -0.755452        -0.088529        -0.411270
 H         1.782596        -2.379948        -0.257362
 H         1.103696        -1.719107        -1.740268
 H         3.749789        -1.595770        -1.747515
 H         4.376696        -0.750708         0.732211
 H         3.825361         1.877980        -0.144868
 H         4.925716         0.976553        -1.187435
 H         2.817163         0.525185        -2.931113
