19
Iteration:  1104
 C        -0.069365         0.105020         0.411392
 C         1.306194        -0.125783        -0.213703
 C         1.622589        -1.437777        -0.811173
 C         3.119225        -1.018291        -1.048823
 C         3.635701        -0.216102         0.132932
 C         4.078432         1.058376        -0.738971
 C         2.857525         0.403319        -1.698414
 O         1.547648         0.761723        -1.276857
 O         2.369065         0.062737         0.791260
 H        -0.495836        -0.751833         1.014550
 H        -0.038224         1.093960         0.909773
 H        -0.844863         0.162568        -0.366556
 H         1.565239        -2.329129        -0.170498
 H         1.106937        -1.536103        -1.795242
 H         3.777295        -1.723325        -1.526076
 H         4.292581        -0.472738         1.011765
 H         4.007354         2.191332        -0.238433
 H         5.212989         0.815755        -1.120491
 H         2.753569         0.393258        -2.812746
