19
Iteration:  1853charge 0 multiplicity 1
 C        -0.104782         0.132749         0.288450
 C         1.297350        -0.069738        -0.105047
 C         1.715235        -1.492419        -0.818507
 C         3.092818        -1.004067        -1.117462
 C         3.578480        -0.135376         0.260250
 C         3.981660         0.950735        -0.819381
 C         2.972616         0.300960        -1.788352
 O         1.618014         0.768519        -1.239936
 O         2.344789         0.145625         0.926571
 H        -0.462437        -0.703747         0.936093
 H        -0.485313         1.034681         0.737998
 H        -0.793648        -0.004069        -0.705996
 H         1.597827        -2.433735        -0.269921
 H         1.016071        -1.413195        -1.700506
 H         3.923449        -1.662540        -1.545818
 H         4.302974        -0.575522         0.996040
 H         3.838125         2.004515        -0.619785
 H         5.023343         0.720110        -1.186634
 H         2.846694         0.477476        -2.881071
