19
Iteration:  4540
 C        -0.103049         0.194693         0.190909
 C         1.301932        -0.121239        -0.258025
 C         1.791495        -1.487649        -0.719912
 C         3.198221        -1.063509        -0.936408
 C         3.572376        -0.201878         0.256180
 C         3.951505         0.959976        -0.760667
 C         2.930970         0.360022        -1.745096
 O         1.532714         0.763095        -1.298950
 O         2.315327         0.155990         0.858687
 H        -0.311175        -0.174818         1.194530
 H        -0.423388         1.210459         0.103557
 H        -0.689180        -0.447223        -0.425212
 H         1.512088        -2.320561        -0.046923
 H         1.124925        -1.722635        -1.689347
 H         3.976245        -1.720383        -1.353841
 H         4.288591        -0.703044         0.911489
 H         3.759179         1.983990        -0.484430
 H         4.938707         0.963438        -1.227945
 H         3.141135         0.801913        -2.720877
