19
Iteration:  1894
 C        -0.076945         0.183314         0.400950
 C         1.265874        -0.094738        -0.196958
 C         1.706662        -1.579328        -0.733677
 C         3.127273        -0.998156        -1.151266
 C         3.535030        -0.239959         0.204915
 C         3.998712         0.933619        -0.682973
 C         2.975402         0.486246        -1.764097
 O         1.592516         0.718730        -1.355776
 O         2.303267         0.161923         0.790986
 H        -0.133915        -0.377017         1.277158
 H        -0.255917         1.196479         0.637325
 H        -0.834620        -0.102975        -0.330778
 H         1.922466        -2.184876         0.215614
 H         1.021151        -1.964918        -1.584199
 H         3.785260        -1.691069        -1.638886
 H         4.185142        -0.596131         1.017838
 H         3.909366         1.955024        -0.238295
 H         5.141470         0.995079        -0.917483
 H         3.146833         0.648823        -2.795376
