19
Iteration:   223
 C         0.025503         0.220047         0.470626
 C         1.338104        -0.234681        -0.126429
 C         1.742442        -1.447445        -0.909444
 C         3.155864        -0.949243        -1.181748
 C         3.546620        -0.252667         0.229882
 C         3.955451         0.922741        -0.740974
 C         2.876265         0.456901        -1.765476
 O         1.496203         0.766087        -1.244567
 O         2.322254         0.063727         0.820999
 H        -0.229614        -0.076450         1.490609
 H         0.100977         1.305940         0.271570
 H        -0.801459        -0.018500        -0.270401
 H         1.752185        -2.364461        -0.235305
 H         1.053316        -1.563765        -1.774502
 H         3.909063        -1.577933        -1.671784
 H         4.285502        -0.773342         0.910969
 H         3.816353         1.955825        -0.294372
 H         5.014111         0.767442        -1.059516
 H         2.924408         0.736898        -2.768960
