19
Iteration:  3626
 C        -0.141282         0.172881         0.304347
 C         1.278132        -0.110114        -0.187995
 C         1.736944        -1.577645        -0.698714
 C         3.132183        -1.021137        -1.080818
 C         3.536018        -0.160672         0.174979
 C         3.982911         1.036854        -0.717027
 C         3.011389         0.353553        -1.784613
 O         1.626141         0.788055        -1.415026
 O         2.284317         0.102602         0.924853
 H        -0.469927        -0.704085         0.951798
 H        -0.125497         1.082574         0.963341
 H        -0.698239         0.233078        -0.605501
 H         1.874069        -2.127477         0.194322
 H         1.310077        -2.021779        -1.548838
 H         3.829664        -1.838749        -1.448935
 H         4.224519        -0.246377         1.008694
 H         3.374569         1.926512        -0.412077
 H         5.087935         1.014205        -0.899880
 H         3.196069         0.369303        -2.949207
