19
Iteration:  4662
 C        -0.029717         0.145683         0.174318
 C         1.325521        -0.118797        -0.243726
 C         1.681727        -1.473130        -0.667921
 C         3.214677        -1.082212        -0.974371
 C         3.527106        -0.088185         0.194988
 C         3.964424         1.042074        -0.768227
 C         2.889159         0.320764        -1.746224
 O         1.636628         0.750303        -1.284076
 O         2.256161         0.107518         0.845909
 H        -0.412303        -0.631108         0.808516
 H        -0.023055         1.112380         0.718848
 H        -0.734846         0.097253        -0.602048
 H         1.641682        -2.190505         0.116083
 H         1.097120        -1.968958        -1.577596
 H         3.962403        -1.816266        -1.197555
 H         4.212575        -0.567140         0.926160
 H         3.798128         2.054681        -0.412599
 H         5.011912         0.887947        -1.030002
 H         2.893922         0.604819        -2.829228
