19
Iteration:  3365charge 0 multiplicity 1
 C        -0.042874         0.142408         0.291087
 C         1.275024        -0.031835        -0.237035
 C         1.649423        -1.556684        -0.740804
 C         3.157733        -1.058679        -1.017415
 C         3.585018        -0.165522         0.219073
 C         3.946817         1.055397        -0.706243
 C         2.946272         0.357884        -1.714354
 O         1.619285         0.692542        -1.429713
 O         2.322946         0.129275         0.878856
 H        -0.164290        -0.323967         1.282630
 H        -0.194407         1.189053         0.589061
 H        -0.914751        -0.026034        -0.397955
 H         1.424779        -2.368840        -0.043953
 H         1.342986        -1.741528        -1.789145
 H         3.866624        -1.708353        -1.417816
 H         4.259728        -0.452603         1.026188
 H         3.604273         1.993342        -0.330605
 H         4.971555         1.063005        -0.982125
 H         3.127379         0.568985        -2.722057
