19
Iteration:  1867
 C        -0.072584         0.089851         0.289422
 C         1.325256        -0.071036        -0.224049
 C         1.692937        -1.450381        -0.736226
 C         3.137269        -1.021983        -0.990816
 C         3.575105        -0.187266         0.192810
 C         3.989478         0.939601        -0.825493
 C         2.885279         0.370447        -1.732475
 O         1.619845         0.869399        -1.242307
 O         2.294457         0.050333         0.811450
 H        -0.268857        -0.696464         1.150767
 H        -0.183018         1.163775         0.694143
 H        -0.738598        -0.045783        -0.630600
 H         1.616497        -2.069516         0.157958
 H         1.239391        -1.816717        -1.609511
 H         3.818962        -1.759967        -1.510254
 H         4.289981        -0.433368         0.998334
 H         3.860613         1.968931        -0.498059
 H         4.978560         0.866555        -1.121952
 H         2.971056         0.340031        -2.877946
