19
Iteration:    35
 C        -0.089943        -0.022277         0.416893
 C         1.308093        -0.103006        -0.225130
 C         1.665898        -1.441636        -0.776275
 C         3.028757        -0.973854        -1.124206
 C         3.538079        -0.255592         0.129415
 C         4.015192         0.934869        -0.805533
 C         2.950390         0.458919        -1.731575
 O         1.689146         0.911537        -1.244197
 O         2.330767         0.098625         0.867211
 H        -0.117873        -0.469482         1.453701
 H        -0.406280         1.017949         0.509958
 H        -0.862806        -0.504820        -0.149422
 H         1.668637        -2.171312         0.076060
 H         1.108843        -1.845833        -1.635008
 H         3.752851        -1.640252        -1.597718
 H         4.215708        -0.756981         0.837110
 H         4.000965         2.022352        -0.514745
 H         4.916302         0.642077        -1.261052
 H         3.017356         0.644037        -2.753626
