19
Iteration:  2522charge 0 multiplicity 1
 C        -0.094756         0.131803         0.276461
 C         1.292948        -0.096961        -0.246535
 C         1.684630        -1.520145        -0.771186
 C         3.095051        -1.055875        -0.998837
 C         3.599649        -0.114963         0.239535
 C         3.995032         0.979719        -0.827119
 C         2.952218         0.341150        -1.702342
 O         1.612548         0.789972        -1.303895
 O         2.314500         0.120070         0.908159
 H        -0.164470        -0.369118         1.272015
 H        -0.037996         1.249824         0.208188
 H        -0.866459        -0.272955        -0.385772
 H         1.473211        -2.375908        -0.100724
 H         1.049626        -1.767785        -1.670781
 H         3.864856        -1.696290        -1.559335
 H         4.303122        -0.428092         1.037144
 H         3.854959         2.012992        -0.602304
 H         5.043145         0.893241        -1.127746
 H         2.957203         0.479041        -2.837188
