19
Iteration:  1053
 C        -0.085040         0.135947         0.375225
 C         1.301283        -0.112227        -0.233511
 C         1.666394        -1.569541        -0.733459
 C         3.042485        -1.009120        -1.168529
 C         3.601407        -0.162407         0.129098
 C         4.037587         1.002630        -0.747766
 C         2.909826         0.392086        -1.741987
 O         1.627363         0.821535        -1.185553
 O         2.347230         0.070633         0.819795
 H        -0.358828        -0.714716         1.079658
 H        -0.164376         1.199539         0.721532
 H        -0.871591         0.019381        -0.345273
 H         1.734633        -2.325534         0.081300
 H         1.157255        -1.856405        -1.637652
 H         3.814554        -1.551455        -1.699480
 H         4.316351        -0.491910         0.916430
 H         3.748353         1.926559        -0.400531
 H         4.990516         0.963512        -1.118162
 H         2.961329         0.689080        -2.756936
