19
Iteration:   943
 C        -0.054188         0.129273         0.357223
 C         1.334952        -0.162167        -0.109123
 C         1.669363        -1.471437        -0.812190
 C         3.133949        -1.044113        -1.081250
 C         3.607165        -0.210351         0.091057
 C         4.023892         0.970865        -0.793414
 C         2.894671         0.474613        -1.775902
 O         1.581557         0.774384        -1.166661
 O         2.308579         0.106288         0.811431
 H        -0.268392        -0.749301         1.201310
 H        -0.276982         1.131734         0.915592
 H        -0.769060         0.045182        -0.439897
 H         1.350012        -2.309187        -0.134143
 H         1.142077        -1.579616        -1.778327
 H         3.785297        -1.663542        -1.714527
 H         4.255389        -0.499196         0.958647
 H         3.930189         1.969486        -0.400445
 H         5.105218         0.792969        -1.123373
 H         2.796107         0.791003        -2.779250
