19
Iteration:  3251
 C        -0.144322         0.200946         0.334630
 C         1.302875        -0.124836        -0.229056
 C         1.739626        -1.526156        -0.757072
 C         3.212075        -1.030087        -1.052809
 C         3.627600        -0.127134         0.244783
 C         3.961917         0.946199        -0.722008
 C         2.951499         0.366593        -1.714628
 O         1.584229         0.726074        -1.409441
 O         2.220628         0.144332         0.848143
 H        -0.315201        -0.576070         1.088266
 H         0.041685         1.167760         0.874054
 H        -0.897560         0.280984        -0.425223
 H         1.742410        -2.249454         0.035920
 H         1.306362        -1.854898        -1.664272
 H         4.039308        -1.779381        -1.341188
 H         4.305055        -0.354404         1.102202
 H         3.909705         2.019908        -0.457750
 H         4.958823         0.658620        -1.088740
 H         2.818837         0.554902        -2.856857
