19
Iteration:  1148
 C         0.035674         0.150485         0.411141
 C         1.310315        -0.110030        -0.211925
 C         1.704493        -1.455668        -0.753132
 C         3.084853        -0.986777        -1.154889
 C         3.557861        -0.174213         0.167125
 C         3.972969         1.015381        -0.685099
 C         2.950221         0.428910        -1.767518
 O         1.552673         0.775021        -1.325763
 O         2.299423        -0.027798         0.839559
 H        -0.170468        -0.505663         1.301011
 H         0.020205         1.236407         0.636022
 H        -0.723401        -0.003260        -0.265238
 H         1.601703        -2.021645         0.173428
 H         1.079352        -1.862378        -1.553359
 H         3.751190        -1.655075        -1.663455
 H         4.199295        -0.826852         0.786344
 H         3.774946         2.063696        -0.180096
 H         5.037362         0.861853        -1.136728
 H         3.005072         0.599107        -2.854129
