19
Iteration:  3032charge 0 multiplicity 1
 C        -0.075736         0.115059         0.312798
 C         1.338544        -0.109528        -0.210429
 C         1.699391        -1.500032        -0.774012
 C         3.034704        -1.095674        -1.089950
 C         3.622909        -0.088431         0.272517
 C         4.022935         0.968879        -0.688657
 C         2.934711         0.349638        -1.716900
 O         1.613218         0.732694        -1.377660
 O         2.291553         0.232237         0.832047
 H        -0.470235        -0.815854         0.843867
 H        -0.367118         0.824318         1.041791
 H        -0.742097         0.168834        -0.598802
 H         1.700038        -2.209467         0.008972
 H         0.996353        -1.742858        -1.486738
 H         3.696547        -1.767638        -1.559346
 H         4.334679        -0.645483         0.855783
 H         3.744102         1.975940        -0.382646
 H         5.056909         0.944647        -0.930309
 H         3.253809         0.416974        -2.793368
