19
Iteration:  2264charge 0 multiplicity 1
 C        -0.077403         0.126240         0.333827
 C         1.247637        -0.101582        -0.115336
 C         1.719085        -1.540730        -0.764141
 C         3.097939        -1.034426        -1.046527
 C         3.556727        -0.173099         0.213177
 C         4.034405         0.939127        -0.738198
 C         2.946088         0.451063        -1.749902
 O         1.592813         0.755376        -1.431264
 O         2.329697         0.186776         0.888412
 H        -0.395877        -0.521766         1.168781
 H        -0.307279         1.188007         0.508845
 H        -0.854549        -0.161374        -0.576106
 H         1.700524        -2.358787        -0.065914
 H         1.109681        -1.782350        -1.615463
 H         3.880337        -1.695818        -1.489968
 H         4.203094        -0.681464         0.932056
 H         3.986899         1.946879        -0.388421
 H         5.105407         0.691087        -1.034190
 H         3.124479         0.568636        -2.812284
