19
Iteration:  2319charge 0 multiplicity 1
 C        -0.010276         0.169778         0.363866
 C         1.306425        -0.160707        -0.175388
 C         1.721390        -1.544049        -0.723070
 C         3.105865        -1.028693        -1.149159
 C         3.496383        -0.085338         0.204271
 C         3.918000         1.005885        -0.762743
 C         3.014864         0.351635        -1.810487
 O         1.736735         0.788998        -1.298133
 O         2.176272         0.068787         0.863685
 H        -0.239559        -0.161187         1.412699
 H        -0.101853         1.284658         0.376525
 H        -0.855001        -0.143688        -0.482821
 H         1.893620        -2.206962         0.098402
 H         0.985656        -1.872319        -1.427466
 H         3.914823        -1.682017        -1.558677
 H         4.092421        -0.481592         1.031479
 H         3.574552         1.962265        -0.418067
 H         5.009619         0.856497        -1.020180
 H         3.093571         0.477081        -2.893576
