19
Iteration:  4480
 C        -0.123808         0.141966         0.342748
 C         1.352321        -0.104645        -0.282873
 C         1.721737        -1.459706        -0.749938
 C         3.197700        -1.076865        -1.002135
 C         3.596251        -0.134105         0.311026
 C         3.927903         0.970202        -0.666006
 C         2.930999         0.255636        -1.728236
 O         1.612749         0.779130        -1.419633
 O         2.286822         0.183917         0.794818
 H        -0.220894        -0.621597         1.130402
 H        -0.376602         1.215679         0.656295
 H        -0.802220        -0.108700        -0.505006
 H         1.526418        -2.152307         0.134748
 H         1.233950        -1.504689        -1.667203
 H         3.805109        -1.675451        -1.629505
 H         4.256731        -0.636893         1.049214
 H         3.537396         2.004331        -0.390227
 H         4.926191         0.879642        -1.133818
 H         3.093875         0.344452        -2.809085
