19
Iteration:  1705charge 0 multiplicity 1
 C        -0.093681         0.107503         0.352758
 C         1.343322        -0.090930        -0.196721
 C         1.722044        -1.460958        -0.746857
 C         3.168349        -1.052707        -1.071457
 C         3.556600        -0.273217         0.151181
 C         3.961658         0.912099        -0.732741
 C         2.925313         0.435144        -1.705963
 O         1.551537         0.779373        -1.288799
 O         2.360633         0.218709         0.781239
 H        -0.406148        -0.563842         1.216282
 H        -0.522483         1.059696         0.644160
 H        -0.790199        -0.196205        -0.348886
 H         1.615722        -2.294110         0.066410
 H         1.179781        -1.551993        -1.765233
 H         3.854270        -1.801585        -1.569208
 H         4.215648        -0.764262         0.859585
 H         3.791516         1.915413        -0.144044
 H         5.034100         0.834953        -1.139290
 H         3.040090         0.735566        -2.767216
