19
Iteration:  2395
 C        -0.161244         0.122577         0.309977
 C         1.291318        -0.101794        -0.235471
 C         1.774362        -1.540608        -0.684940
 C         3.076187        -1.012481        -1.048786
 C         3.584388        -0.169279         0.196825
 C         3.993207         0.959128        -0.769618
 C         2.966405         0.400666        -1.789638
 O         1.637981         0.845879        -1.394631
 O         2.284917         0.090010         0.911324
 H        -0.347789        -0.594843         1.072500
 H        -0.129954         0.964469         0.944247
 H        -0.786104         0.221491        -0.613625
 H         1.810998        -1.947987         0.300373
 H         1.136083        -2.177317        -1.211657
 H         3.802251        -1.660792        -1.577424
 H         4.200081        -0.619555         1.001192
 H         3.719408         1.976754        -0.478884
 H         5.062601         0.741756        -1.055035
 H         3.077259         0.488380        -2.857913
