19
Iteration:  1283charge 0 multiplicity 1
 C        -0.094817         0.200911         0.350359
 C         1.251862        -0.128775        -0.229171
 C         1.777378        -1.496811        -0.751867
 C         3.142271        -0.967250        -1.060899
 C         3.632104        -0.256641         0.108047
 C         3.955132         0.978838        -0.800348
 C         2.869885         0.414879        -1.724265
 O         1.634935         0.848334        -1.262464
 O         2.274414        -0.001651         0.887629
 H        -0.295852        -0.573267         0.958905
 H         0.079757         1.103798         0.801669
 H        -0.858015         0.451653        -0.307452
 H         1.809719        -2.162322         0.136849
 H         1.353187        -1.941173        -1.663131
 H         3.944648        -1.531854        -1.638015
 H         4.223358        -0.742743         0.861442
 H         3.578882         1.910147        -0.290135
 H         5.010605         0.817466        -1.237445
 H         2.804093         0.440658        -2.790078
