19
Iteration:  2564
 C        -0.057754         0.187521         0.312664
 C         1.339257        -0.177718        -0.256303
 C         1.675153        -1.561177        -0.672766
 C         3.095286        -1.007987        -1.164002
 C         3.542783        -0.191141         0.277787
 C         3.996406         1.008866        -0.688974
 C         2.969950         0.379909        -1.688272
 O         1.561366         0.672259        -1.395701
 O         2.330929         0.226023         0.859723
 H        -0.406397        -0.513373         1.082411
 H         0.002390         1.236273         0.692060
 H        -0.828489         0.327981        -0.421186
 H         1.700311        -2.391846        -0.089190
 H         1.057872        -1.825383        -1.484302
 H         3.839253        -1.652518        -1.705122
 H         4.304616        -0.563457         0.909532
 H         3.739938         2.018358        -0.414368
 H         4.961623         1.025346        -1.194837
 H         3.225055         0.565492        -2.704684
