19
Iteration:  3252
 C        -0.136737         0.196983         0.333958
 C         1.305582        -0.131052        -0.232421
 C         1.740140        -1.522535        -0.753055
 C         3.210138        -1.017709        -1.057371
 C         3.626915        -0.133766         0.239778
 C         3.965445         0.947028        -0.724596
 C         2.951952         0.363267        -1.711924
 O         1.583708         0.729635        -1.408139
 O         2.217054         0.144162         0.848700
 H        -0.324154        -0.580727         1.095002
 H         0.040372         1.183148         0.869462
 H        -0.919636         0.273914        -0.426024
 H         1.723523        -2.242508         0.047753
 H         1.286117        -1.848881        -1.654722
 H         4.036136        -1.781784        -1.313942
 H         4.293464        -0.342175         1.108457
 H         3.904327         2.009437        -0.464072
 H         4.965637         0.666888        -1.058768
 H         2.823670         0.516266        -2.853414
