19
Iteration:  3033
 C        -0.067188         0.109971         0.313432
 C         1.336069        -0.105761        -0.192106
 C         1.705734        -1.500367        -0.777839
 C         3.045145        -1.084640        -1.092131
 C         3.614479        -0.096808         0.273986
 C         4.028451         0.967801        -0.692588
 C         2.935326         0.340234        -1.725746
 O         1.620254         0.738364        -1.382627
 O         2.280651         0.229088         0.830974
 H        -0.500913        -0.782483         0.871734
 H        -0.375815         0.827583         1.037383
 H        -0.722962         0.168446        -0.588703
 H         1.693362        -2.186452         0.038589
 H         0.981903        -1.799842        -1.487016
 H         3.645852        -1.744735        -1.579442
 H         4.304772        -0.634760         0.852573
 H         3.716542         1.980297        -0.407414
 H         5.067729         0.957989        -0.913530
 H         3.208913         0.436327        -2.748631
