19
Iteration:   148charge 0 multiplicity 1
 C        -0.128015         0.046236         0.377964
 C         1.276385        -0.166642        -0.155794
 C         1.692004        -1.509859        -0.850642
 C         3.093001        -1.036500        -1.134808
 C         3.631974        -0.236525         0.193415
 C         4.058717         0.939916        -0.735349
 C         2.883754         0.476485        -1.662492
 O         1.517138         0.863540        -1.198769
 O         2.412731         0.175088         0.711706
 H        -0.526825        -0.705435         1.109610
 H         0.148446         0.931883         1.049720
 H        -0.791991         0.397244        -0.519744
 H         1.736242        -2.427290        -0.135845
 H         0.924037        -1.850740        -1.600738
 H         3.832245        -1.693023        -1.579669
 H         4.353885        -0.485926         1.011105
 H         4.066454         1.859344        -0.241956
 H         4.859531         0.745267        -1.438734
 H         3.032373         0.719236        -2.713169
