19
Iteration:    45
 C        -0.009005         0.032112         0.352405
 C         1.346585        -0.090686        -0.124768
 C         1.643744        -1.421878        -0.822345
 C         3.051039        -0.982733        -1.177059
 C         3.562464        -0.193399         0.196826
 C         4.060642         0.885754        -0.762732
 C         2.862048         0.469226        -1.748389
 O         1.592265         0.806342        -1.244171
 O         2.317496         0.106027         0.860756
 H         0.109567        -0.461182         1.302387
 H        -0.365524         1.035622         0.438272
 H        -0.597525        -0.580139        -0.280762
 H         1.602264        -2.266868        -0.132666
 H         0.924112        -1.404876        -1.622182
 H         3.808361        -1.679834        -1.515737
 H         4.294030        -0.655927         0.855530
 H         4.105497         1.949105        -0.412685
 H         5.040656         0.668889        -1.134532
 H         2.916630         0.682067        -2.791942
