19
Iteration:  3035charge 0 multiplicity 1
 C        -0.054477         0.095200         0.313627
 C         1.330249        -0.096811        -0.155508
 C         1.715977        -1.498407        -0.779584
 C         3.067658        -1.054686        -1.092982
 C         3.590362        -0.117498         0.270448
 C         4.033637         0.966605        -0.701731
 C         2.939987         0.321607        -1.739045
 O         1.633974         0.750211        -1.391776
 O         2.260907         0.221282         0.828923
 H        -0.535520        -0.714387         0.906499
 H        -0.372828         0.877550         1.032230
 H        -0.680900         0.175362        -0.559721
 H         1.679269        -2.164902         0.115681
 H         0.945081        -1.917324        -1.517428
 H         3.613125        -1.754939        -1.653417
 H         4.268499        -0.626096         0.900337
 H         3.667690         1.989326        -0.451501
 H         5.115530         0.978323        -0.900251
 H         3.112677         0.487150        -2.717014
