19
Iteration:  2675
 C        -0.091718         0.131978         0.320584
 C         1.282545        -0.128091        -0.170818
 C         1.715630        -1.553383        -0.674846
 C         3.114964        -1.036462        -1.059391
 C         3.564018        -0.194324         0.191108
 C         3.977750         0.979306        -0.710088
 C         2.991063         0.495423        -1.752980
 O         1.606298         0.750923        -1.386670
 O         2.265063         0.146988         0.819995
 H        -0.079462        -0.117818         1.410732
 H         0.064133         1.249656         0.293968
 H        -0.849731        -0.259611        -0.425043
 H         1.728335        -2.370043         0.120346
 H         1.154876        -1.771027        -1.619451
 H         3.888024        -1.832734        -1.375165
 H         4.250047        -0.712445         0.904742
 H         3.840489         2.012180        -0.410816
 H         4.968641         0.794634        -1.141144
 H         3.044509         0.570618        -2.879851
