19
Iteration:  3410
 C        -0.159320         0.187052         0.235167
 C         1.247786        -0.187539        -0.282063
 C         1.830044        -1.590083        -0.686298
 C         3.130943        -1.019267        -0.995602
 C         3.583611        -0.118461         0.216274
 C         3.990410         0.962351        -0.764140
 C         2.968843         0.422243        -1.769582
 O         1.635655         0.800091        -1.316960
 O         2.268808         0.144162         0.876594
 H        -0.517668        -0.600244         0.950733
 H        -0.305907         0.960614         0.997251
 H        -1.034810         0.299733        -0.380812
 H         1.794790        -2.195428         0.265527
 H         1.126558        -1.976842        -1.513679
 H         3.856853        -1.685713        -1.572783
 H         4.292377        -0.685156         0.845953
 H         3.984069         2.021496        -0.465650
 H         4.924094         0.655119        -1.192675
 H         2.910445         0.488822        -2.798662
