19
Iteration:  4446charge 0 multiplicity 1
 C        -0.063489         0.181351         0.218883
 C         1.340495        -0.136893        -0.237954
 C         1.758023        -1.529093        -0.687376
 C         3.131868        -1.014998        -1.075264
 C         3.537927        -0.088194         0.243708
 C         3.962400         0.970983        -0.740830
 C         2.932281         0.376956        -1.729912
 O         1.673984         0.685973        -1.279678
 O         2.214907         0.161904         0.834896
 H        -0.530701        -0.632109         0.841357
 H        -0.062240         1.096215         0.917576
 H        -0.793615         0.320875        -0.603846
 H         1.596255        -2.181030         0.143619
 H         1.128444        -1.880480        -1.410684
 H         3.848416        -1.683508        -1.461521
 H         4.149352        -0.696975         0.914595
 H         3.918857         2.086676        -0.618185
 H         5.004147         0.693012        -1.118193
 H         2.933439         0.452456        -2.846254
