19
Iteration:  2265
 C        -0.084923         0.129724         0.326035
 C         1.254521        -0.102449        -0.106288
 C         1.721356        -1.538854        -0.759720
 C         3.099325        -1.035635        -1.052867
 C         3.571480        -0.178381         0.215901
 C         4.033641         0.942608        -0.733541
 C         2.945798         0.451304        -1.747932
 O         1.582999         0.755911        -1.440111
 O         2.332192         0.183285         0.889157
 H        -0.402461        -0.516321         1.175423
 H        -0.328203         1.196215         0.494269
 H        -0.866502        -0.147984        -0.551657
 H         1.720163        -2.360108        -0.056860
 H         1.122645        -1.728670        -1.646277
 H         3.877293        -1.692126        -1.503796
 H         4.205912        -0.670702         0.961622
 H         3.967834         1.945261        -0.404986
 H         5.065216         0.644688        -1.021174
 H         3.107791         0.549170        -2.794183
