19
Iteration:   291charge 0 multiplicity 1
 C        -0.052620         0.093297         0.418161
 C         1.334910        -0.106900        -0.065181
 C         1.631771        -1.457749        -0.939232
 C         3.126394        -0.984457        -1.125978
 C         3.535077        -0.181562         0.183164
 C         4.059027         0.941902        -0.841726
 C         2.907978         0.443606        -1.762856
 O         1.550975         0.736560        -1.226133
 O         2.378286         0.123798         0.949038
 H        -0.311803        -0.785584         1.052155
 H        -0.249906         1.117737         0.871747
 H        -0.697984         0.091888        -0.581825
 H         1.478895        -2.382283        -0.295731
 H         1.081846        -1.495428        -1.966184
 H         3.929535        -1.586567        -1.505070
 H         4.114306        -0.762979         0.887352
 H         4.089263         1.985134        -0.754720
 H         4.992029         0.530395        -1.356065
 H         2.804200         0.807408        -2.766606
