19
Iteration:  1787charge 0 multiplicity 1
 C        -0.052041         0.204039         0.438297
 C         1.353295        -0.141540        -0.233239
 C         1.666265        -1.501208        -0.725621
 C         3.139721        -1.020792        -1.113248
 C         3.564716        -0.194648         0.194143
 C         3.940491         0.996295        -0.670362
 C         2.953243         0.458283        -1.802611
 O         1.611585         0.695398        -1.373179
 O         2.274739         0.094791         0.813291
 H        -0.164782        -0.497492         1.224095
 H         0.107747         1.213732         0.815976
 H        -0.892359         0.103425        -0.430723
 H         1.601853        -2.314055        -0.010622
 H         1.089103        -1.706968        -1.656696
 H         3.805358        -1.852525        -1.329933
 H         4.251454        -0.735384         0.880465
 H         3.635102         1.932832        -0.250606
 H         4.973774         0.967696        -1.033287
 H         3.228801         0.899145        -2.768283
