19
Iteration:  3168
 C        -0.087595         0.091724         0.280689
 C         1.284235        -0.135031        -0.196984
 C         1.739963        -1.458672        -0.774378
 C         3.101122        -1.034657        -1.076417
 C         3.565278        -0.149851         0.343994
 C         4.013407         0.955307        -0.795474
 C         2.928692         0.376131        -1.648380
 O         1.608102         0.729901        -1.319140
 O         2.278619         0.213809         0.802769
 H        -0.303403        -0.493804         1.180539
 H        -0.098345         1.195520         0.533572
 H        -0.774197        -0.124899        -0.572032
 H         1.589762        -2.343058        -0.053384
 H         1.315953        -1.746122        -1.821636
 H         3.800101        -1.748341        -1.641607
 H         4.439416        -0.337111         0.971749
 H         3.909881         2.028830        -0.557560
 H         5.074508         0.748023        -1.118861
 H         2.921398         0.247167        -2.715609
