19
Iteration:  1838charge 0 multiplicity 1
 C        -0.185797         0.118272         0.304911
 C         1.403870        -0.161882        -0.110121
 C         1.658011        -1.465169        -0.823259
 C         3.129385        -1.106381        -1.081836
 C         3.520880        -0.149026         0.112717
 C         4.001746         0.971060        -0.804096
 C         2.922202         0.453421        -1.715075
 O         1.650686         0.710850        -1.276126
 O         2.323016         0.213822         0.949895
 H        -0.554828        -0.605852         0.964382
 H         0.030583         1.076793         0.750992
 H        -0.698801         0.173262        -0.571361
 H         1.564849        -2.440830        -0.242581
 H         1.102018        -1.707995        -1.827394
 H         3.795979        -1.830195        -1.402526
 H         4.312303        -0.449378         0.785568
 H         3.893701         2.039722        -0.411308
 H         5.082268         0.694811        -1.141649
 H         3.096021         0.595231        -2.740347
