19
Iteration:  2433
 C        -0.063919         0.215633         0.319015
 C         1.331032        -0.168536        -0.127994
 C         1.714593        -1.549027        -0.900068
 C         3.128884        -1.046006        -1.047772
 C         3.558536        -0.142758         0.261641
 C         3.929084         0.984575        -0.758891
 C         2.936062         0.307213        -1.784550
 O         1.621265         0.679278        -1.306596
 O         2.303932         0.246723         0.922594
 H        -0.661311        -0.480668         1.068624
 H        -0.026391         1.362680         0.648529
 H        -0.862669         0.251432        -0.449848
 H         1.798708        -2.503738        -0.281155
 H         1.178069        -1.521190        -1.899522
 H         3.901161        -1.712868        -1.452052
 H         4.332494        -0.615966         0.883155
 H         3.707032         2.003190        -0.379825
 H         4.961916         1.009593        -1.080910
 H         3.064355         0.437439        -2.907336
