19
Iteration:  2310charge 0 multiplicity 1
 C        -0.023818         0.200514         0.278338
 C         1.316779        -0.156777        -0.166731
 C         1.720230        -1.667138        -0.698820
 C         3.070581        -1.021324        -1.125010
 C         3.492375        -0.135179         0.203374
 C         3.932743         1.043415        -0.727189
 C         2.985846         0.370475        -1.812132
 O         1.687213         0.816946        -1.285745
 O         2.254946         0.101408         0.856033
 H        -0.187225        -0.268837         1.332844
 H         0.010974         1.359554         0.250042
 H        -0.958520        -0.212543        -0.375680
 H         1.736243        -2.419140         0.121725
 H         0.904302        -1.887928        -1.442755
 H         3.798194        -1.736160        -1.524631
 H         4.319308        -0.533649         0.817740
 H         3.669391         2.055259        -0.420171
 H         5.000176         1.093430        -0.950601
 H         3.302390         0.509371        -2.819458
