19
Iteration:  2481charge 0 multiplicity 1
 C        -0.075436         0.122988         0.291016
 C         1.274403        -0.125534        -0.268047
 C         1.705239        -1.538122        -0.709574
 C         3.105364        -1.063734        -1.065501
 C         3.622113        -0.186055         0.236969
 C         4.021406         0.936310        -0.722154
 C         2.941238         0.396897        -1.696428
 O         1.567289         0.833041        -1.376515
 O         2.302803         0.168439         0.841476
 H        -0.147084        -0.240337         1.338399
 H        -0.282556         1.157911         0.446468
 H        -0.929049        -0.319864        -0.254093
 H         1.749379        -2.049568         0.334400
 H         1.134364        -1.855357        -1.622574
 H         3.789461        -1.724517        -1.686897
 H         4.273797        -0.538819         1.093035
 H         3.786841         1.960606        -0.371600
 H         5.058393         0.838641        -1.157628
 H         3.118923         0.498327        -2.822381
