19
Iteration:  1851charge 0 multiplicity 1
 C        -0.121108         0.124181         0.281436
 C         1.289875        -0.069406        -0.082091
 C         1.726260        -1.504745        -0.833416
 C         3.089048        -1.018017        -1.132960
 C         3.579875        -0.124244         0.246632
 C         3.975085         0.950807        -0.815126
 C         2.974765         0.305484        -1.784803
 O         1.624130         0.755080        -1.246417
 O         2.347642         0.160377         0.944473
 H        -0.446000        -0.635027         0.914511
 H        -0.445333         1.019642         0.736733
 H        -0.770272         0.046732        -0.645223
 H         1.562551        -2.460800        -0.265588
 H         0.994903        -1.341727        -1.709476
 H         3.878116        -1.657850        -1.492809
 H         4.277607        -0.615720         0.943860
 H         3.877807         2.047552        -0.642375
 H         5.061478         0.726230        -1.193622
 H         2.907164         0.517919        -2.825238
