19
Iteration:  1348charge 0 multiplicity 1
 C        -0.069635         0.077311         0.418507
 C         1.323825        -0.107867        -0.255303
 C         1.724035        -1.475914        -0.794058
 C         3.120096        -1.017949        -1.107015
 C         3.567051        -0.175190         0.228820
 C         3.976469         0.857899        -0.717611
 C         2.905993         0.452984        -1.732126
 O         1.568217         0.838641        -1.266745
 O         2.317061         0.119333         0.744437
 H        -0.176853        -0.543473         1.296088
 H        -0.100280         1.115231         0.742716
 H        -0.837324        -0.143312        -0.266816
 H         1.617692        -2.173685         0.045449
 H         1.270303        -1.837870        -1.715185
 H         3.746590        -1.704765        -1.741051
 H         4.243833        -0.418161         1.033125
 H         3.960534         1.849231        -0.167146
 H         5.067582         0.774377        -1.098636
 H         3.073353         0.683524        -2.734800
