19
Iteration:  3586
 C        -0.087927         0.142353         0.298063
 C         1.293542        -0.162895        -0.251754
 C         1.706413        -1.556655        -0.786989
 C         3.106999        -1.090779        -1.033026
 C         3.585034        -0.049113         0.264954
 C         4.064760         0.992951        -0.707199
 C         2.978977         0.330436        -1.668846
 O         1.547884         0.742095        -1.326388
 O         2.275346         0.212840         0.781635
 H        -0.345249        -0.665403         1.037446
 H        -0.151087         1.164650         0.760359
 H        -0.883395         0.174621        -0.458429
 H         1.746012        -2.425180        -0.078460
 H         1.177402        -1.893405        -1.752787
 H         3.882922        -1.680923        -1.599525
 H         4.245782        -0.566871         0.987382
 H         3.941468         1.997100        -0.323281
 H         5.053558         0.922982        -1.051743
 H         2.991733         0.681030        -2.652609
