19
Iteration:  3842
 C        -0.130435         0.162336         0.340241
 C         1.260215        -0.183340        -0.227442
 C         1.775863        -1.565248        -0.751975
 C         3.186858        -1.028381        -0.999679
 C         3.543103        -0.145561         0.244880
 C         4.024943         0.983711        -0.752081
 C         2.920541         0.416213        -1.704753
 O         1.625465         0.827384        -1.356521
 O         2.254171         0.127791         0.785955
 H        -0.422527        -0.714315         0.932437
 H        -0.394725         1.087239         0.808166
 H        -0.758297         0.100985        -0.460006
 H         1.972235        -2.199975         0.173837
 H         1.097654        -1.882724        -1.552492
 H         3.886742        -1.650290        -1.580110
 H         4.221359        -0.613651         0.998429
 H         3.901226         1.993518        -0.380004
 H         4.936732         0.776143        -1.271031
 H         3.118305         0.409516        -2.796138
