19
Iteration:  2436
 C        -0.076938         0.206653         0.337265
 C         1.312605        -0.161283        -0.129731
 C         1.699863        -1.550504        -0.875059
 C         3.141873        -1.032854        -1.094971
 C         3.576788        -0.164925         0.288754
 C         3.940942         1.001427        -0.742280
 C         2.926671         0.299569        -1.797643
 O         1.625875         0.698722        -1.332720
 O         2.279956         0.243164         0.919264
 H        -0.557424        -0.289814         1.159732
 H        -0.061158         1.203925         0.675025
 H        -0.699326         0.223660        -0.506566
 H         1.941670        -2.492257        -0.282497
 H         1.161378        -1.570887        -1.824085
 H         3.871406        -1.812708        -1.454559
 H         4.405200        -0.528038         0.905187
 H         3.644370         1.935691        -0.306281
 H         4.989357         0.945861        -1.139069
 H         3.153867         0.398218        -2.907035
