19
Iteration:  3809
 C        -0.042369         0.131000         0.317229
 C         1.307814        -0.141375        -0.238777
 C         1.722140        -1.429090        -0.782138
 C         3.124260        -1.013069        -1.066932
 C         3.581991        -0.133290         0.257244
 C         3.977420         0.994217        -0.724034
 C         2.952166         0.368890        -1.671862
 O         1.618923         0.688479        -1.353286
 O         2.257083         0.176683         0.808887
 H        -0.349647        -0.816345         0.789027
 H        -0.252554         0.896537         1.009538
 H        -0.627226         0.048008        -0.527766
 H         1.612336        -2.256624         0.034963
 H         0.952534        -1.694342        -1.532604
 H         3.868619        -1.698201        -1.504628
 H         4.015982        -0.613174         1.155288
 H         3.890010         2.021633        -0.368463
 H         4.972645         0.873604        -1.133142
 H         3.029185         0.335052        -2.767858
