19
Iteration:  1158charge 0 multiplicity 1
 C        -0.081597         0.190740         0.374612
 C         1.334889        -0.169179        -0.191827
 C         1.658565        -1.493653        -0.733194
 C         3.111800        -0.970285        -1.067590
 C         3.626872        -0.276959         0.122298
 C         3.974804         0.988620        -0.756050
 C         2.919811         0.497489        -1.671771
 O         1.549070         0.802200        -1.338537
 O         2.351690        -0.004594         0.802268
 H        -0.148780        -0.394488         1.332740
 H        -0.123056         1.247166         0.706071
 H        -0.825956        -0.107145        -0.294400
 H         1.769197        -2.368023        -0.124408
 H         1.025374        -1.683527        -1.607926
 H         3.760686        -1.702609        -1.493933
 H         4.313476        -0.604795         0.923885
 H         3.696251         2.041951        -0.409608
 H         5.040391         1.094496        -1.107347
 H         3.144125         0.770706        -2.729933
