19
Iteration:  4056charge 0 multiplicity 1
 C        -0.042365         0.143433         0.363663
 C         1.265479        -0.066506        -0.201200
 C         1.681416        -1.492723        -0.731753
 C         3.202153        -1.059216        -1.086229
 C         3.562666        -0.154392         0.271490
 C         3.935291         0.986372        -0.706567
 C         2.974171         0.323142        -1.739829
 O         1.603433         0.793044        -1.421389
 O         2.273464         0.106555         0.835774
 H        -0.384459        -0.730160         1.003481
 H        -0.308535         1.151640         0.729458
 H        -0.727561         0.152504        -0.494637
 H         1.718478        -2.174315         0.078330
 H         1.267754        -1.903962        -1.661306
 H         3.989498        -1.611557        -1.528559
 H         4.261244        -0.479835         1.031763
 H         3.647757         2.022648        -0.403316
 H         5.030283         0.950022        -1.079231
 H         3.134867         0.330454        -2.806900
