19
Iteration:  1995
 C        -0.085188         0.071458         0.287797
 C         1.300417        -0.121092        -0.216735
 C         1.696023        -1.453750        -0.716142
 C         3.106938        -1.052785        -0.967430
 C         3.633691        -0.289441         0.194288
 C         4.065735         0.945849        -0.729270
 C         2.907173         0.478264        -1.687851
 O         1.534132         0.774304        -1.293750
 O         2.316162         0.184379         0.708509
 H        -0.425227        -0.526811         1.078203
 H        -0.142557         0.981157         0.785628
 H        -0.879959         0.119027        -0.413537
 H         1.486805        -2.188754         0.076023
 H         1.206769        -1.733101        -1.665169
 H         3.806021        -1.639675        -1.636288
 H         4.252915        -0.753778         0.977398
 H         3.942110         2.014362        -0.373071
 H         5.115699         1.063739        -1.171659
 H         3.141149         0.644195        -2.735770
