19
Iteration:  1309
 C        -0.016626         0.124718         0.337867
 C         1.317494        -0.151220        -0.156600
 C         1.654458        -1.477036        -0.754043
 C         3.070780        -1.040689        -1.154515
 C         3.576534        -0.163915         0.180343
 C         3.976871         0.981213        -0.743718
 C         2.942083         0.455889        -1.761472
 O         1.630793         0.757545        -1.232616
 O         2.346830         0.103752         0.835044
 H        -0.422272        -0.780515         0.948548
 H        -0.244096         1.133321         0.805015
 H        -0.704210         0.224914        -0.633360
 H         1.676824        -2.287729        -0.004678
 H         1.020815        -1.734384        -1.655051
 H         3.696158        -1.725652        -1.675992
 H         4.258957        -0.545321         0.984647
 H         3.635710         1.971291        -0.513591
 H         5.001561         0.716655        -0.849397
 H         2.792829         0.760726        -2.880001
