19
Iteration:  4551charge 0 multiplicity 1
 C        -0.069932         0.104967         0.202799
 C         1.305415        -0.090272        -0.226007
 C         1.645006        -1.554691        -0.695922
 C         3.166755        -1.075513        -1.006718
 C         3.552924        -0.173250         0.252726
 C         3.932952         1.035572        -0.729025
 C         2.939678         0.375128        -1.768969
 O         1.624172         0.795438        -1.341410
 O         2.361230         0.164386         0.881733
 H        -0.279613        -0.206600         1.221240
 H        -0.192009         1.166916         0.048295
 H        -0.706078        -0.341056        -0.513714
 H         1.461352        -2.365091         0.042325
 H         1.345982        -1.757873        -1.851792
 H         3.927771        -1.772515        -1.393286
 H         4.188454        -0.421472         1.110038
 H         3.587249         1.916272        -0.253405
 H         4.979172         0.922540        -0.989051
 H         2.857974         0.303478        -2.874147
