19
Iteration:  3145charge 0 multiplicity 1
 C        -0.125068         0.126961         0.356247
 C         1.316670        -0.118226        -0.220368
 C         1.769506        -1.540318        -0.779599
 C         3.142372        -1.038190        -1.032072
 C         3.499279        -0.148811         0.221983
 C         4.003104         0.947530        -0.737875
 C         2.992609         0.437933        -1.783506
 O         1.616226         0.732642        -1.346103
 O         2.257297         0.199073         0.849548
 H        -0.200014        -0.243699         1.400186
 H        -0.359930         1.254939         0.337902
 H        -0.741814        -0.426108        -0.355879
 H         1.542496        -2.265826         0.063111
 H         1.024008        -1.738530        -1.630767
 H         3.884140        -1.834745        -1.411489
 H         4.290521        -0.482633         0.929560
 H         3.993528         1.898265        -0.189040
 H         5.032687         0.711584        -1.108529
 H         2.982965         0.482074        -2.854620
