19
Iteration:  2501charge 0 multiplicity 1
 C        -0.115542         0.152331         0.328000
 C         1.294089        -0.088124        -0.110166
 C         1.722762        -1.446313        -0.781152
 C         3.143939        -1.000266        -1.074989
 C         3.516660        -0.190859         0.168097
 C         3.963532         0.945868        -0.742931
 C         2.973800         0.353201        -1.772041
 O         1.653586         0.678556        -1.278877
 O         2.305716         0.212698         0.832602
 H        -0.369683        -0.333487         1.304393
 H        -0.435150         1.236859         0.230001
 H        -0.655184        -0.456044        -0.413401
 H         1.713455        -2.464021        -0.170332
 H         1.146390        -1.425377        -1.794456
 H         3.963973        -1.782162        -1.210107
 H         4.098044        -0.625695         0.998713
 H         3.970251         1.971734        -0.422695
 H         4.975389         0.664491        -1.113560
 H         2.861981         0.508705        -2.907183
