19
Iteration:  1948charge 0 multiplicity 1
 C        -0.056918         0.164990         0.331484
 C         1.235191        -0.111839        -0.205222
 C         1.748916        -1.460525        -0.704996
 C         3.162089        -0.981902        -1.111356
 C         3.497022        -0.175499         0.166392
 C         3.959512         1.048392        -0.789640
 C         2.975761         0.307152        -1.792442
 O         1.680315         0.821516        -1.226547
 O         2.246894         0.001038         0.837128
 H        -0.211062        -0.301167         1.249994
 H        -0.143586         1.215397         0.506511
 H        -0.875621        -0.097193        -0.363904
 H         1.800920        -2.292055         0.088886
 H         1.001463        -1.876870        -1.495281
 H         3.834356        -1.738002        -1.464633
 H         4.207268        -0.581427         0.896535
 H         3.802334         2.097423        -0.492157
 H         5.078553         0.864509        -1.030177
 H         3.018125         0.321180        -2.859832
