19
Iteration:  3979
 C        -0.061577         0.111099         0.222115
 C         1.350652        -0.098189        -0.177300
 C         1.762603        -1.455868        -0.749672
 C         3.072954        -1.015817        -1.112671
 C         3.548745        -0.129311         0.256438
 C         3.988529         0.984375        -0.718910
 C         2.945553         0.359484        -1.742768
 O         1.610467         0.724649        -1.310113
 O         2.268372         0.101915         0.861128
 H        -0.485143        -0.477064         1.090896
 H        -0.190795         1.079512         0.735301
 H        -0.780265        -0.009845        -0.619419
 H         1.802204        -2.099238         0.095128
 H         1.023419        -1.618758        -1.542172
 H         3.789447        -1.695368        -1.457168
 H         4.264269        -0.523121         0.972874
 H         3.700753         2.017178        -0.454213
 H         5.108467         0.895581        -0.993052
 H         3.024773         0.396265        -2.835896
