19
Iteration:  4827charge 0 multiplicity 1
 C        -0.064539         0.106946         0.316824
 C         1.378217        -0.103987        -0.240669
 C         1.721007        -1.442641        -0.659215
 C         3.128140        -1.026416        -0.933047
 C         3.542438        -0.154694         0.259988
 C         3.967411         0.986245        -0.716554
 C         2.942172         0.354607        -1.741816
 O         1.592988         0.686503        -1.436888
 O         2.262501         0.197535         0.753852
 H        -0.396304        -0.829173         0.762481
 H         0.064798         0.937198         0.968821
 H        -0.721783         0.309823        -0.552719
 H         1.567047        -2.313787         0.085584
 H         1.059010        -1.583913        -1.708143
 H         3.795412        -1.787663        -1.370505
 H         4.177947        -0.637546         1.031878
 H         3.846430         1.944937        -0.157149
 H         4.960763         0.993932        -1.192356
 H         3.186413         0.444577        -2.833909
