19
Iteration:  2959
 C        -0.061717         0.188604         0.245634
 C         1.314707        -0.109793        -0.165459
 C         1.734453        -1.476669        -0.718475
 C         3.173497        -0.996010        -1.013267
 C         3.596707        -0.209058         0.189017
 C         3.958610         1.022138        -0.729026
 C         2.916060         0.328003        -1.732627
 O         1.585203         0.749302        -1.336762
 O         2.265489         0.077444         0.828648
 H        -0.371261        -0.369715         1.134408
 H        -0.115370         1.226573         0.576940
 H        -0.824043         0.082585        -0.533956
 H         1.779610        -2.406061        -0.058004
 H         1.241289        -1.681708        -1.752248
 H         3.766880        -1.782367        -1.341535
 H         4.281208        -0.434834         0.979804
 H         3.631210         1.961120        -0.212278
 H         4.960261         1.097453        -1.207967
 H         3.057915         0.371190        -2.828819
