19
Iteration:   171charge 0 multiplicity 1
 C        -0.018287         0.056597         0.376013
 C         1.341065        -0.022993        -0.137592
 C         1.768757        -1.370683        -0.712128
 C         3.066354        -0.958306        -1.184422
 C         3.468219        -0.266645         0.089324
 C         4.053051         0.955282        -0.767011
 C         2.916197         0.442832        -1.778354
 O         1.572453         0.818211        -1.279406
 O         2.270701         0.037776         0.905122
 H        -0.016429        -0.834059         1.008667
 H        -0.204972         0.862992         1.163946
 H        -0.735266        -0.081314        -0.563093
 H         1.938936        -2.175229         0.069986
 H         1.045910        -1.859135        -1.443973
 H         3.764291        -1.650924        -1.608288
 H         4.121514        -0.963327         0.612039
 H         4.033267         1.892653        -0.376721
 H         5.019685         0.560627        -1.115615
 H         3.000857         0.788805        -2.851265
