19
Iteration:   151
 C        -0.103701         0.034613         0.380913
 C         1.285161        -0.153087        -0.166938
 C         1.696637        -1.539961        -0.825306
 C         3.080273        -1.008564        -1.154145
 C         3.631046        -0.247861         0.193254
 C         4.044062         0.905245        -0.733630
 C         2.874152         0.508028        -1.674314
 O         1.541538         0.858114        -1.208229
 O         2.387389         0.185745         0.748602
 H        -0.462577        -0.732577         1.017062
 H         0.095994         0.962297         1.008335
 H        -0.803760         0.377520        -0.480973
 H         1.702453        -2.350455        -0.101010
 H         0.954442        -1.890257        -1.584747
 H         3.818645        -1.619301        -1.641774
 H         4.316062        -0.489699         0.983307
 H         4.099413         1.869747        -0.268195
 H         4.913611         0.701548        -1.447215
 H         3.017357         0.753847        -2.831217
