19
Iteration:  4980charge 0 multiplicity 1
 C        -0.115654         0.063088         0.209164
 C         1.294887        -0.120958        -0.207286
 C         1.587811        -1.430537        -0.671359
 C         3.109898        -1.061797        -1.031488
 C         3.649591        -0.162213         0.220697
 C         3.936153         1.060618        -0.725555
 C         3.041703         0.271995        -1.746809
 O         1.677278         0.684605        -1.322463
 O         2.290878         0.222796         0.859204
 H        -0.397788        -0.339886         1.188733
 H        -0.211098         1.133966         0.335505
 H        -0.753453        -0.005290        -0.692252
 H         1.649383        -2.293510         0.042645
 H         1.005226        -1.726635        -1.662985
 H         3.741793        -1.733043        -1.548195
 H         4.360907        -0.396517         1.023475
 H         3.546521         2.004463        -0.349807
 H         4.951395         1.218199        -1.177780
 H         3.174669         0.435787        -2.776187
