19
Iteration:  2143charge 0 multiplicity 1
 C         0.001307         0.140766         0.315511
 C         1.355884        -0.120644        -0.124149
 C         1.573379        -1.486369        -0.881264
 C         3.110352        -1.031915        -1.044649
 C         3.567861        -0.122614         0.258058
 C         3.947312         0.972759        -0.743923
 C         3.017206         0.372171        -1.733578
 O         1.627853         0.734495        -1.341855
 O         2.312258         0.137714         0.857927
 H        -0.371412        -0.444658         1.158763
 H        -0.369855         1.133868         0.597420
 H        -0.916881        -0.243908        -0.304957
 H         1.620434        -2.411691        -0.333839
 H         0.855520        -1.639425        -1.624191
 H         3.808357        -1.773957        -1.470142
 H         4.246013        -0.415514         1.071728
 H         3.803984         1.984518        -0.512788
 H         4.971710         0.801970        -1.051542
 H         3.043710         0.626169        -2.803022
