19
Iteration:   702charge 0 multiplicity 1
 C        -0.099058         0.098474         0.469160
 C         1.246927        -0.086995        -0.133240
 C         1.739922        -1.575493        -0.734837
 C         3.093789        -0.971392        -1.208785
 C         3.472634        -0.268377         0.107513
 C         4.055441         0.909781        -0.761348
 C         3.005847         0.503759        -1.801389
 O         1.598298         0.904782        -1.285600
 O         2.307788         0.078979         0.829175
 H        -0.190646        -0.841961         1.066963
 H        -0.146152         0.939045         1.176851
 H        -0.931129         0.254737        -0.286231
 H         1.880656        -2.225640         0.114853
 H         1.114191        -2.067340        -1.496960
 H         3.937942        -1.582003        -1.501544
 H         4.177047        -0.778923         0.835609
 H         4.020551         2.044760        -0.324027
 H         5.149246         0.771435        -1.024299
 H         2.908689         0.695706        -2.972313
