19
Iteration:   955
 C        -0.071188         0.086850         0.356417
 C         1.347893        -0.117450        -0.115816
 C         1.710820        -1.421246        -0.833875
 C         3.089479        -1.029281        -1.181758
 C         3.565565        -0.210448         0.131093
 C         3.947984         0.934284        -0.791779
 C         2.880825         0.497082        -1.755709
 O         1.603512         0.718846        -1.244320
 O         2.356133         0.148262         0.976305
 H        -0.461820        -0.603511         1.265903
 H        -0.069080         1.236126         0.635654
 H        -0.741916        -0.069326        -0.462355
 H         1.710704        -2.423990        -0.325555
 H         1.066289        -1.380943        -1.711524
 H         3.814389        -1.762719        -1.558374
 H         4.373949        -0.688891         0.709286
 H         3.989845         1.886627        -0.337443
 H         4.975271         0.638803        -1.287317
 H         2.938376         0.679833        -2.798834
