19
Iteration:  3506
 C        -0.124101         0.225961         0.257907
 C         1.282654        -0.126353        -0.231610
 C         1.768396        -1.493004        -0.752593
 C         3.210271        -1.054630        -1.124922
 C         3.540222        -0.187283         0.294798
 C         3.971535         0.990505        -0.689049
 C         2.989321         0.340652        -1.751924
 O         1.531087         0.721099        -1.316688
 O         2.287015         0.141189         0.856373
 H        -0.166257        -0.181442         1.326021
 H        -0.218881         1.350183         0.434581
 H        -0.936522        -0.307878        -0.324003
 H         1.929630        -2.312665        -0.074162
 H         1.271496        -1.832014        -1.675707
 H         4.013146        -1.598733        -1.712465
 H         4.223325        -0.353028         1.150131
 H         3.835516         2.016395        -0.305896
 H         4.982529         0.752068        -1.064420
 H         2.919765         0.579288        -2.884323
