19
Iteration:  1736
 C        -0.078681         0.115933         0.297712
 C         1.338107        -0.088551        -0.185392
 C         1.708273        -1.470558        -0.672678
 C         3.104735        -1.024032        -1.114361
 C         3.515702        -0.165436         0.154640
 C         4.035881         0.991705        -0.803796
 C         2.904695         0.428320        -1.754966
 O         1.628332         0.818436        -1.241847
 O         2.279826         0.025449         0.852010
 H        -0.275807        -0.515045         1.240437
 H        -0.402671         1.156795         0.435670
 H        -0.636480        -0.309381        -0.529748
 H         1.816841        -2.067843         0.266725
 H         1.052401        -1.783181        -1.494854
 H         3.815814        -1.760279        -1.625577
 H         4.265587        -0.597656         0.838539
 H         4.044653         2.037068        -0.427864
 H         4.985852         0.544189        -1.113432
 H         3.063903         0.608900        -2.868306
