19
Iteration:   184
 C        -0.090181         0.016120         0.431587
 C         1.326531        -0.054729        -0.164305
 C         1.638075        -1.384149        -0.753319
 C         3.070154        -0.985680        -1.198208
 C         3.582861        -0.225602         0.175616
 C         3.968423         0.961712        -0.759758
 C         2.981254         0.443730        -1.809973
 O         1.621125         0.870539        -1.298957
 O         2.371091        -0.034126         0.888466
 H        -0.310795        -0.733686         1.169319
 H        -0.273820         1.057379         0.773553
 H        -0.910436        -0.080112        -0.356217
 H         1.720641        -2.057596         0.085666
 H         0.888277        -1.689274        -1.508138
 H         3.756787        -1.771091        -1.508486
 H         4.290367        -0.504322         0.920822
 H         3.846278         1.968571        -0.427769
 H         5.018443         0.915358        -1.126257
 H         2.984881         0.517331        -2.978820
