19
Iteration:  3654
 C        -0.042345         0.161497         0.226475
 C         1.319351        -0.168902        -0.177658
 C         1.759588        -1.524109        -0.740174
 C         3.202569        -1.022114        -0.996390
 C         3.528232        -0.178613         0.182663
 C         3.995703         0.960485        -0.758210
 C         2.908535         0.396956        -1.683755
 O         1.528106         0.749377        -1.319886
 O         2.269622         0.167114         0.850679
 H        -0.349870        -0.550305         0.961130
 H        -0.011718         1.180693         0.612598
 H        -0.721200         0.180983        -0.671605
 H         1.622446        -2.364125         0.056472
 H         1.481246        -1.670866        -1.839752
 H         3.907452        -1.748006        -1.296906
 H         4.213375        -0.337501         1.074508
 H         3.753127         1.971356        -0.451238
 H         4.983723         0.842163        -1.265933
 H         2.901340         0.589231        -2.768289
