19
Iteration:  1125
 C        -0.037360         0.178260         0.457237
 C         1.306434        -0.142770        -0.156278
 C         1.767815        -1.549180        -0.862382
 C         3.127878        -1.009729        -1.162800
 C         3.534618        -0.197336         0.193060
 C         3.891342         0.900491        -0.771140
 C         2.963624         0.430101        -1.755265
 O         1.626594         0.835285        -1.284514
 O         2.281886         0.123966         0.851754
 H        -0.136952        -0.717906         1.112905
 H        -0.014961         1.123080         1.016722
 H        -0.965641         0.119330        -0.118661
 H         1.789271        -2.391051        -0.150306
 H         1.064119        -1.675465        -1.704745
 H         3.870866        -1.672750        -1.582308
 H         4.190164        -0.688118         0.961686
 H         3.544251         1.989455        -0.438334
 H         5.011304         0.800944        -1.104224
 H         3.067058         0.710421        -2.843326
