19
Iteration:  3297
 C        -0.198679         0.104377         0.260976
 C         1.309745        -0.108017        -0.193189
 C         1.758955        -1.410488        -0.717499
 C         3.167810        -1.091693        -0.999902
 C         3.575305        -0.157733         0.220564
 C         3.964057         0.935767        -0.745726
 C         2.949426         0.343074        -1.743479
 O         1.585531         0.776676        -1.336428
 O         2.330795         0.173343         0.855854
 H        -0.256541        -0.341926         1.261550
 H        -0.341461         1.210353         0.243279
 H        -0.739088        -0.415961        -0.571124
 H         1.656713        -2.145667         0.069692
 H         1.153356        -1.525001        -1.597958
 H         3.792812        -1.608393        -1.750094
 H         4.335763        -0.525565         0.930939
 H         3.787751         1.870633        -0.247172
 H         4.943866         0.853068        -1.180530
 H         3.292196         0.307989        -2.910271
