19
Iteration:   242charge 0 multiplicity 1
 C        -0.066549         0.235682         0.468050
 C         1.311637        -0.092819        -0.216711
 C         1.721558        -1.554821        -0.747590
 C         3.048397        -0.976041        -1.214424
 C         3.571683        -0.257501         0.094565
 C         3.985839         1.035021        -0.704507
 C         2.930372         0.556656        -1.694897
 O         1.586445         0.770816        -1.391507
 O         2.315237        -0.079046         0.898501
 H         0.093588        -0.319334         1.415386
 H        -0.219089         1.253351         0.730413
 H        -0.884168        -0.122448        -0.026912
 H         1.899404        -2.275186         0.041568
 H         1.119478        -1.958300        -1.506114
 H         3.806316        -1.678411        -1.682584
 H         4.363281        -0.617415         0.805194
 H         4.080735         2.069057        -0.102920
 H         4.876070         0.739479        -1.263839
 H         3.004398         0.745100        -2.805592
