19
Iteration:  3770charge 0 multiplicity 1
 C        -0.052506         0.177866         0.251388
 C         1.296393        -0.067743        -0.274840
 C         1.779885        -1.494586        -0.719593
 C         3.168450        -1.006759        -1.091694
 C         3.572112        -0.213904         0.281163
 C         3.918714         0.991386        -0.717734
 C         2.912298         0.346720        -1.728391
 O         1.600938         0.741676        -1.287745
 O         2.251688         0.108938         0.832514
 H        -0.245515        -0.528521         1.079011
 H        -0.131295         1.254329         0.585875
 H        -0.810293         0.103585        -0.611547
 H         1.774281        -2.081728         0.145618
 H         1.425105        -1.939005        -1.629392
 H         3.894956        -1.795333        -1.366352
 H         4.307205        -0.558294         0.974347
 H         3.672236         2.023867        -0.382129
 H         4.933634         0.871729        -1.163240
 H         2.997252         0.504366        -2.815638
