19
Iteration:  1106charge 0 multiplicity 1
 C        -0.080270         0.094323         0.430775
 C         1.310940        -0.139451        -0.214504
 C         1.627297        -1.431275        -0.813979
 C         3.121341        -1.012883        -1.042261
 C         3.619019        -0.230047         0.126808
 C         4.078518         1.059350        -0.744153
 C         2.870885         0.393574        -1.713344
 O         1.553463         0.772467        -1.273217
 O         2.350602         0.071263         0.785949
 H        -0.549274        -0.699459         1.121654
 H         0.005770         1.105515         0.910993
 H        -0.714031         0.197262        -0.365528
 H         1.537505        -2.355484        -0.190181
 H         1.182012        -1.560799        -1.804458
 H         3.815700        -1.692193        -1.498455
 H         4.291435        -0.499852         0.988616
 H         4.011612         2.142897        -0.270655
 H         5.166595         0.905036        -1.134867
 H         2.821100         0.414063        -2.778127
