19
Iteration:  4051
 C        -0.073667         0.162310         0.366996
 C         1.280553        -0.039941        -0.217549
 C         1.705337        -1.527939        -0.741805
 C         3.176002        -1.082958        -1.080110
 C         3.566397        -0.131197         0.259732
 C         3.938246         0.982052        -0.696144
 C         2.939653         0.307017        -1.745075
 O         1.625530         0.778215        -1.450372
 O         2.275016         0.132335         0.877777
 H        -0.383412        -0.629153         0.992866
 H        -0.251688         1.045635         1.001627
 H        -0.613273         0.012188        -0.601307
 H         1.839901        -2.327941         0.070641
 H         1.226881        -1.776430        -1.743240
 H         3.996900        -1.686241        -1.597611
 H         4.262243        -0.559966         1.020925
 H         3.636660         1.947278        -0.312746
 H         4.923035         0.979997        -1.067581
 H         3.168291         0.656532        -2.820789
