19
Iteration:  3072charge 0 multiplicity 1
 C        -0.095985         0.217658         0.294995
 C         1.276729        -0.101480        -0.253250
 C         1.707215        -1.544422        -0.781964
 C         3.162580        -1.044598        -0.999886
 C         3.598815        -0.118578         0.254231
 C         4.002939         0.990327        -0.758441
 C         2.903773         0.358215        -1.685995
 O         1.580519         0.755320        -1.330088
 O         2.302039         0.072402         0.841945
 H        -0.188996        -0.399741         1.170882
 H        -0.071377         1.299730         0.412011
 H        -0.784875        -0.072251        -0.518736
 H         1.644320        -2.188349         0.146547
 H         1.351862        -2.083458        -1.708873
 H         3.824875        -1.750271        -1.647285
 H         4.223338        -0.303738         1.187565
 H         3.883856         2.067702        -0.574687
 H         5.045642         0.749012        -1.122128
 H         2.881852         0.612038        -2.833198
