19
Iteration:   112charge 0 multiplicity 1
 C         0.022681         0.156892         0.408211
 C         1.392907        -0.144884        -0.163808
 C         1.674544        -1.467721        -0.828303
 C         3.071736        -1.002100        -1.196157
 C         3.525473        -0.184356         0.197686
 C         3.841083         0.971054        -0.755956
 C         2.917695         0.427416        -1.784202
 O         1.631517         0.831617        -1.346052
 O         2.345659        -0.009226         0.950496
 H        -0.302757        -0.735231         1.031997
 H         0.111540         1.032712         1.021459
 H        -0.772935         0.316211        -0.238596
 H         1.956360        -2.209452        -0.060790
 H         0.925373        -1.657136        -1.587555
 H         3.858106        -1.721564        -1.538132
 H         4.260476        -0.664581         0.882527
 H         3.707282         2.038761        -0.339127
 H         4.852056         0.920239        -1.069919
 H         3.023229         0.705136        -2.768940
