19
Iteration:  1659charge 0 multiplicity 1
 C        -0.061548         0.227525         0.415005
 C         1.301547        -0.125838        -0.199932
 C         1.723635        -1.519905        -0.785825
 C         3.140669        -1.039420        -1.150389
 C         3.472978        -0.210770         0.132444
 C         3.932165         1.062815        -0.728149
 C         2.979394         0.373441        -1.806654
 O         1.681896         0.751400        -1.245535
 O         2.250748         0.041564         0.841499
 H        -0.339174        -0.432804         1.227440
 H        -0.008247         1.213132         0.864972
 H        -1.036219         0.281178        -0.232446
 H         1.979871        -2.252373         0.054302
 H         1.156561        -1.877619        -1.690971
 H         3.970309        -1.753368        -1.364891
 H         4.252667        -0.484814         0.883074
 H         3.685306         2.117609        -0.418216
 H         5.056051         0.929634        -0.912849
 H         3.099401         0.614053        -2.931308
