19
Iteration:  1672
 C        -0.032044         0.208165         0.436771
 C         1.272544        -0.164594        -0.265687
 C         1.700291        -1.544118        -0.803963
 C         3.101577        -0.975401        -1.085836
 C         3.504236        -0.121400         0.203436
 C         3.969627         0.972739        -0.771987
 C         3.050193         0.426703        -1.761152
 O         1.613699         0.750404        -1.331110
 O         2.286262         0.052607         0.899931
 H        -0.211255        -0.576240         1.240523
 H         0.048289         1.203263         0.845048
 H        -0.825814         0.124696        -0.218599
 H         1.436351        -2.407455        -0.138184
 H         1.063527        -1.948642        -1.652523
 H         3.883539        -1.692769        -1.527755
 H         4.184512        -0.677350         0.820532
 H         3.747042         2.078524        -0.468200
 H         5.088540         0.993523        -1.059954
 H         2.996070         0.689491        -2.825597
