19
Iteration:   208charge 0 multiplicity 1
 C        -0.015914         0.179137         0.384900
 C         1.314195        -0.100571        -0.169576
 C         1.682092        -1.521994        -0.943581
 C         3.107218        -1.071040        -1.073034
 C         3.605557        -0.255685         0.094277
 C         3.956084         1.026661        -0.748780
 C         2.862798         0.389910        -1.649744
 O         1.580325         0.804790        -1.143621
 O         2.367002         0.098373         0.797022
 H        -0.097650        -0.360963         1.357588
 H        -0.119330         1.218258         0.568132
 H        -0.805779        -0.156307        -0.177972
 H         1.453279        -2.446263        -0.495072
 H         1.263199        -1.458684        -1.921635
 H         3.903602        -1.740475        -1.518407
 H         4.255710        -0.642711         0.875846
 H         3.721260         2.036370        -0.225100
 H         4.894851         1.147764        -1.303468
 H         2.837992         0.455334        -2.806543
