19
Iteration:  4061
 C        -0.061854         0.129076         0.344967
 C         1.308802        -0.109445        -0.213305
 C         1.701118        -1.449397        -0.735267
 C         3.179205        -1.009412        -1.041931
 C         3.554866        -0.185092         0.248735
 C         3.942611         0.996733        -0.730415
 C         3.005190         0.354011        -1.730983
 O         1.587073         0.788228        -1.375215
 O         2.270655         0.088099         0.795282
 H        -0.308639        -0.663725         1.015459
 H        -0.194066         1.195855         0.617071
 H        -0.871364         0.189373        -0.424478
 H         1.540300        -2.160981         0.154145
 H         1.157741        -1.989510        -1.534578
 H         3.994902        -1.709576        -1.477940
 H         4.255146        -0.427167         1.086840
 H         3.708356         2.033098        -0.500904
 H         4.958421         0.915369        -0.988460
 H         3.083553         0.141632        -2.837277
