19
Iteration:  2825charge 0 multiplicity 1
 C        -0.079192         0.236818         0.362003
 C         1.317528        -0.155311        -0.223736
 C         1.742233        -1.533147        -0.771988
 C         3.099597        -0.969384        -1.015744
 C         3.584503        -0.170010         0.260324
 C         4.014899         1.013797        -0.741271
 C         2.938029         0.355249        -1.700356
 O         1.547359         0.742179        -1.386366
 O         2.276127         0.077821         0.769820
 H        -0.461907        -0.602233         0.963524
 H         0.075050         1.121187         1.016430
 H        -0.709544         0.415271        -0.535411
 H         1.703422        -2.273304         0.145456
 H         1.071458        -1.971921        -1.527809
 H         3.897271        -1.764301        -1.342191
 H         4.366339        -0.403711         0.982597
 H         3.850000         2.101871        -0.621496
 H         5.117068         0.824956        -0.959708
 H         3.105784         0.356523        -2.757260
