19
Iteration:   454
 C        -0.033188         0.072645         0.381147
 C         1.356442        -0.171351        -0.142630
 C         1.684547        -1.520031        -0.840614
 C         3.089448        -1.024154        -1.131949
 C         3.532436        -0.216456         0.106513
 C         4.024243         0.949242        -0.754806
 C         2.880100         0.512375        -1.742003
 O         1.584080         0.826800        -1.185951
 O         2.337990         0.144418         0.835871
 H        -0.292297        -0.487274         1.271099
 H        -0.136277         1.132741         0.586731
 H        -0.840482        -0.064699        -0.323049
 H         1.765183        -2.292585        -0.070359
 H         1.070035        -1.694747        -1.754399
 H         3.751932        -1.663097        -1.689716
 H         4.244177        -0.687467         0.790620
 H         3.941279         1.938968        -0.377339
 H         5.053876         0.543595        -1.051837
 H         2.888489         0.772704        -2.749066
