19
Iteration:    90
 C        -0.016802         0.209004         0.432662
 C         1.322580        -0.092720        -0.242215
 C         1.705690        -1.560241        -0.710968
 C         3.094858        -1.010162        -1.185530
 C         3.555097        -0.231205         0.103613
 C         3.957057         1.031816        -0.716768
 C         2.950721         0.450434        -1.790054
 O         1.603997         0.823097        -1.221651
 O         2.271184        -0.050248         0.795372
 H        -0.168475        -0.523203         1.283559
 H         0.059463         1.216076         0.812763
 H        -0.840987         0.118281        -0.229920
 H         1.847695        -2.148740         0.229434
 H         1.184995        -1.962977        -1.562756
 H         3.801028        -1.622501        -1.788059
 H         4.246790        -0.566995         0.908352
 H         3.710002         2.035098        -0.208905
 H         4.964512         1.117533        -0.983445
 H         2.966040         0.664833        -2.798510
