19
Iteration:  1489
 C        -0.097514         0.168433         0.382503
 C         1.289623        -0.068639        -0.103953
 C         1.713558        -1.450693        -0.857432
 C         3.138075        -1.002515        -1.142607
 C         3.574953        -0.207375         0.175353
 C         3.970206         0.924521        -0.789115
 C         2.973392         0.399967        -1.751257
 O         1.633006         0.728366        -1.246044
 O         2.296814         0.108164         0.851361
 H        -0.236754        -0.792129         1.029328
 H        -0.291020         1.095477         0.968716
 H        -0.924814        -0.031815        -0.426293
 H         1.654302        -2.282002        -0.171294
 H         1.112527        -1.598329        -1.742465
 H         3.899403        -1.786518        -1.395993
 H         4.147551        -0.627112         0.986897
 H         3.829596         1.935861        -0.448843
 H         4.888099         0.985320        -1.208269
 H         2.907190         0.813729        -2.701943
