19
Iteration:  1161charge 0 multiplicity 1
 C        -0.098929         0.188994         0.366179
 C         1.303943        -0.142361        -0.159820
 C         1.662986        -1.521569        -0.754577
 C         3.113266        -0.993481        -1.072190
 C         3.647661        -0.296954         0.139651
 C         3.969957         0.987557        -0.756279
 C         2.903481         0.508061        -1.674916
 O         1.564961         0.801634        -1.329395
 O         2.370466         0.021437         0.795407
 H        -0.190707        -0.372155         1.333239
 H        -0.201153         1.252489         0.651754
 H        -0.884447        -0.074320        -0.288105
 H         1.767104        -2.479854        -0.193975
 H         1.078395        -1.673923        -1.662001
 H         3.820714        -1.697387        -1.525692
 H         4.406119        -0.538526         0.909914
 H         3.668228         2.085788        -0.345384
 H         5.068682         1.077711        -1.172313
 H         3.078260         0.744943        -2.686375
