19
Iteration:  1891
 C        -0.097350         0.180219         0.389962
 C         1.290697        -0.116119        -0.236314
 C         1.687288        -1.592573        -0.696747
 C         3.126201        -1.032713        -1.144398
 C         3.535873        -0.243100         0.197464
 C         3.999633         0.957001        -0.690237
 C         2.981360         0.497349        -1.759973
 O         1.603391         0.757084        -1.353316
 O         2.295230         0.158219         0.804686
 H        -0.113633        -0.491146         1.319922
 H        -0.254141         1.283232         0.668706
 H        -0.841939        -0.111981        -0.292333
 H         1.928120        -2.257231         0.177307
 H         1.063541        -1.955378        -1.530119
 H         3.810364        -1.701641        -1.612968
 H         4.224240        -0.587943         0.970502
 H         3.936715         1.978335        -0.261661
 H         5.049438         0.946776        -0.999172
 H         3.138495         0.713157        -2.849589
