19
Iteration:  4404charge 0 multiplicity 1
 C        -0.126357         0.150969         0.215072
 C         1.329703        -0.075967        -0.197865
 C         1.650819        -1.453635        -0.691913
 C         3.149533        -1.033945        -1.035793
 C         3.576906        -0.203293         0.237394
 C         4.006469         1.047878        -0.748519
 C         2.970909         0.335070        -1.693558
 O         1.613938         0.656640        -1.345845
 O         2.293583         0.152028         0.810849
 H        -0.398771        -0.635698         0.899441
 H         0.002129         1.063494         0.828832
 H        -0.881960         0.198278        -0.551365
 H         1.709039        -2.337104         0.109323
 H         1.060326        -1.635685        -1.588575
 H         3.947057        -1.575654        -1.446124
 H         4.238579        -0.385384         1.080950
 H         3.704094         2.034897        -0.409657
 H         4.976523         0.807029        -1.099306
 H         3.034399         0.580343        -2.747952
