19
Iteration:  2801charge 0 multiplicity 1
 C        -0.097590         0.152750         0.302001
 C         1.323378        -0.105058        -0.221120
 C         1.755241        -1.449566        -0.818150
 C         3.150057        -1.065166        -1.021821
 C         3.550242        -0.202294         0.238467
 C         3.896972         0.970330        -0.750471
 C         2.938337         0.341665        -1.810855
 O         1.635202         0.668715        -1.299930
 O         2.285230         0.247449         0.893480
 H        -0.350257        -0.717868         0.933537
 H         0.203266         0.944150         1.071888
 H        -0.856985         0.463559        -0.412624
 H         1.401656        -2.300229        -0.170289
 H         1.026521        -1.555441        -1.589287
 H         3.998734        -1.856408        -1.330484
 H         4.375129        -0.519443         0.902207
 H         3.915914         1.980382        -0.301299
 H         4.946615         0.824337        -1.185308
 H         3.018551         0.627713        -2.896054
