19
Iteration:   458charge 0 multiplicity 1
 C        -0.029584         0.064753         0.401624
 C         1.328596        -0.177688        -0.150891
 C         1.681296        -1.509363        -0.818009
 C         3.088485        -1.018785        -1.154981
 C         3.482895        -0.191851         0.094788
 C         4.034398         0.938293        -0.752720
 C         2.910704         0.512092        -1.764854
 O         1.611278         0.817567        -1.184717
 O         2.321647         0.123032         0.842939
 H        -0.334502        -0.510266         1.356392
 H        -0.010911         1.159513         0.628949
 H        -0.841231        -0.021583        -0.312318
 H         1.770920        -2.259771        -0.019491
 H         1.059279        -1.755302        -1.680142
 H         3.831455        -1.645267        -1.721155
 H         4.267809        -0.609809         0.689589
 H         3.968821         1.996815        -0.348792
 H         5.050547         0.658013        -0.971985
 H         2.955142         0.790929        -2.873467
