19
Iteration:  3983
 C        -0.056432         0.115968         0.248513
 C         1.326127        -0.115797        -0.227659
 C         1.780546        -1.458084        -0.750234
 C         3.119301        -0.994731        -1.089254
 C         3.519831        -0.139806         0.239895
 C         3.976640         0.968183        -0.729339
 C         2.939989         0.348089        -1.770315
 O         1.611695         0.724912        -1.300405
 O         2.275714         0.106189         0.891157
 H        -0.563097        -0.512235         1.024551
 H        -0.255635         1.148656         0.666185
 H        -0.770404         0.127646        -0.558076
 H         1.743888        -2.008921         0.199805
 H         1.043508        -1.636464        -1.487594
 H         3.916576        -1.713438        -1.423757
 H         4.246414        -0.626103         0.912652
 H         3.752745         1.997994        -0.455161
 H         4.970564         0.820027        -1.028877
 H         3.053898         0.676705        -2.825367
