19
Iteration:  4294charge 0 multiplicity 1
 C        -0.085466         0.157998         0.275970
 C         1.297794        -0.137710        -0.283906
 C         1.665269        -1.537060        -0.657180
 C         3.059656        -1.028787        -1.026180
 C         3.606892        -0.158455         0.196074
 C         3.958147         1.030517        -0.714047
 C         2.999547         0.385966        -1.691584
 O         1.646970         0.782982        -1.396544
 O         2.299933         0.082481         0.848602
 H        -0.191496        -0.410601         1.212789
 H        -0.388498         1.216493         0.351044
 H        -0.817964        -0.196182        -0.431244
 H         1.388548        -2.309191         0.345695
 H         1.248981        -1.831988        -1.680777
 H         3.874798        -1.744494        -1.229179
 H         4.356430        -0.605796         0.885506
 H         3.821376         2.087321        -0.469296
 H         4.971115         0.955363        -1.107500
 H         3.172011         0.702779        -2.766725
