19
Iteration:  3469charge 0 multiplicity 1
 C        -0.112958         0.150693         0.333878
 C         1.271875        -0.086299        -0.242872
 C         1.730077        -1.513535        -0.743219
 C         3.225327        -1.049140        -1.054165
 C         3.557216        -0.129795         0.241423
 C         3.980974         1.008308        -0.721789
 C         2.972408         0.333259        -1.730585
 O         1.595541         0.739821        -1.336808
 O         2.277462         0.133430         0.788774
 H        -0.238644        -0.551974         1.122070
 H        -0.273736         1.166587         0.656462
 H        -0.895957         0.020365        -0.415732
 H         1.603994        -2.238348         0.090901
 H         1.089864        -1.754147        -1.576030
 H         3.757754        -1.791100        -1.584543
 H         4.117349        -0.629678         1.031871
 H         3.680795         1.999073        -0.323056
 H         5.111706         1.021352        -0.901457
 H         3.188559         0.485755        -2.792370
