19
Iteration:  3706charge 0 multiplicity 1
 C        -0.032531         0.054031         0.310995
 C         1.352823        -0.104385        -0.244554
 C         1.663079        -1.565430        -0.702209
 C         3.159709        -1.055794        -0.995168
 C         3.569445        -0.189649         0.228120
 C         3.956915         0.994779        -0.639545
 C         2.914497         0.360786        -1.821247
 O         1.637846         0.902280        -1.384508
 O         2.257111         0.150644         0.796010
 H        -0.004667        -0.352600         1.326062
 H        -0.279780         1.154461         0.252544
 H        -0.875787        -0.404985        -0.339907
 H         1.628219        -2.273906         0.122215
 H         1.177775        -2.064133        -1.563809
 H         3.895453        -1.740497        -1.392488
 H         4.103252        -0.544178         1.106196
 H         3.720987         1.998236        -0.327852
 H         4.930408         1.029019        -1.054270
 H         2.985702         0.685913        -2.818447
