19
Iteration:  2734
 C        -0.083461         0.156448         0.276467
 C         1.329742        -0.128575        -0.127598
 C         1.712136        -1.608953        -0.775689
 C         3.121017        -1.025123        -1.077447
 C         3.636873        -0.170820         0.228853
 C         3.987792         0.947587        -0.699666
 C         2.882697         0.410796        -1.716166
 O         1.581404         0.788579        -1.374685
 O         2.310264         0.200629         0.859795
 H        -0.400577        -0.189160         1.282404
 H        -0.254308         1.248008         0.301921
 H        -0.826230        -0.234658        -0.412368
 H         1.686432        -2.499141        -0.316160
 H         1.082789        -1.756713        -1.613764
 H         3.913910        -1.576259        -1.517035
 H         4.228221        -0.596495         1.052659
 H         3.894507         2.016877        -0.447683
 H         5.015979         0.794384        -1.030141
 H         2.958966         0.254906        -2.828640
