19
Iteration:  3841
 C        -0.123044         0.167082         0.344580
 C         1.252397        -0.190735        -0.234083
 C         1.785114        -1.574668        -0.752911
 C         3.181897        -1.031327        -0.997916
 C         3.551486        -0.141872         0.240834
 C         4.017934         0.979865        -0.750408
 C         2.926307         0.423621        -1.711792
 O         1.620575         0.835172        -1.358025
 O         2.256668         0.135548         0.791479
 H        -0.466697        -0.726325         0.945027
 H        -0.417295         1.075224         0.839494
 H        -0.768265         0.081184        -0.488527
 H         1.961825        -2.209945         0.180442
 H         1.131664        -1.859327        -1.584537
 H         3.876118        -1.674403        -1.535242
 H         4.206056        -0.650381         1.009969
 H         3.908445         1.971686        -0.378144
 H         4.915454         0.740690        -1.260588
 H         3.118304         0.403776        -2.788864
