19
Iteration:  2673
 C        -0.096935         0.146157         0.310110
 C         1.296877        -0.125189        -0.178565
 C         1.706821        -1.529643        -0.676634
 C         3.128539        -1.033537        -1.054548
 C         3.561497        -0.203168         0.190542
 C         3.995326         0.991565        -0.706378
 C         2.971576         0.475867        -1.746166
 O         1.593792         0.730886        -1.369170
 O         2.266873         0.144544         0.798275
 H        -0.120953        -0.136687         1.376358
 H        -0.003112         1.279630         0.377306
 H        -0.801280        -0.313607        -0.414423
 H         1.738337        -2.425025         0.165782
 H         1.146104        -1.749681        -1.618523
 H         3.916461        -1.819235        -1.429465
 H         4.255152        -0.668338         0.904438
 H         3.885690         2.025505        -0.395017
 H         5.012303         0.782974        -1.130232
 H         3.038320         0.615772        -2.828849
