19
Iteration:  3163
 C        -0.087211         0.100766         0.261357
 C         1.260153        -0.105934        -0.188699
 C         1.705474        -1.474143        -0.785810
 C         3.127105        -1.044184        -1.136765
 C         3.570113        -0.134144         0.349860
 C         4.013454         0.945046        -0.775567
 C         2.940617         0.337034        -1.620767
 O         1.596610         0.714070        -1.310943
 O         2.290033         0.233149         0.820090
 H        -0.189964        -0.489098         1.208375
 H        -0.175934         1.194018         0.488668
 H        -0.933323        -0.167256        -0.374859
 H         1.741366        -2.344135        -0.198294
 H         1.344405        -1.769073        -1.704842
 H         3.887655        -1.636096        -1.600793
 H         4.407360        -0.439239         1.044085
 H         3.912518         2.056202        -0.776265
 H         5.004658         0.740845        -1.088952
 H         3.061046         0.468743        -2.846181
