19
Iteration:  3191
 C        -0.112520         0.148817         0.248493
 C         1.284954        -0.034456        -0.164433
 C         1.692735        -1.515444        -0.633436
 C         3.187630        -1.088026        -1.055693
 C         3.537131        -0.170869         0.199173
 C         3.956052         0.992729        -0.748969
 C         2.972197         0.382633        -1.785682
 O         1.613422         0.779435        -1.356151
 O         2.279489         0.105580         0.841441
 H        -0.219529        -0.704801         0.909875
 H        -0.218548         1.030444         0.866149
 H        -0.847658         0.118547        -0.583626
 H         1.679858        -2.312976         0.172610
 H         1.307017        -1.998199        -1.607102
 H         4.111791        -1.663780        -1.104004
 H         4.392561        -0.603443         0.709538
 H         3.752416         2.043087        -0.512149
 H         5.058937         0.905344        -1.027632
 H         3.080776         0.704375        -2.767858
