19
Iteration:  1820
 C        -0.051416         0.174783         0.342540
 C         1.289860        -0.094633        -0.220361
 C         1.741327        -1.531163        -0.706824
 C         3.117223        -1.002168        -1.061660
 C         3.607031        -0.195272         0.219825
 C         3.993214         0.961087        -0.724203
 C         2.914427         0.395127        -1.728720
 O         1.558083         0.781956        -1.294846
 O         2.299484         0.094071         0.745717
 H        -0.325857        -0.673703         0.984184
 H        -0.069838         1.124744         0.888846
 H        -0.811932         0.242702        -0.614669
 H         1.631157        -2.291237         0.076182
 H         1.094252        -1.804510        -1.579006
 H         3.861990        -1.687086        -1.527011
 H         4.221165        -0.703225         0.998747
 H         3.882781         1.984214        -0.387498
 H         5.024821         0.913070        -1.149414
 H         3.036122         0.647149        -2.816810
