19
Iteration:  4532charge 0 multiplicity 1
 C        -0.184398         0.180610         0.211147
 C         1.355487        -0.105836        -0.204391
 C         1.805186        -1.471964        -0.751313
 C         3.159421        -1.025834        -0.997929
 C         3.614447        -0.171368         0.219771
 C         3.956790         0.918081        -0.742344
 C         2.939844         0.392897        -1.657990
 O         1.562766         0.711921        -1.322353
 O         2.255506         0.137890         0.831848
 H        -0.182985        -0.069652         1.310503
 H        -0.409365         1.325083         0.119740
 H        -0.930264        -0.335698        -0.442971
 H         1.821370        -2.145811         0.027761
 H         1.277141        -1.775617        -1.625239
 H         3.877946        -1.696469        -1.379879
 H         4.318303        -0.549007         0.985166
 H         3.927154         2.004014        -0.494972
 H         4.999173         0.809835        -1.215819
 H         3.051556         0.496391        -2.821205
