19
Iteration:  3355charge 0 multiplicity 1
 C        -0.090831         0.231671         0.337455
 C         1.332456        -0.096462        -0.235118
 C         1.745841        -1.503497        -0.771465
 C         3.178256        -1.042135        -0.964171
 C         3.541496        -0.179361         0.209499
 C         3.934912         0.997979        -0.728051
 C         3.026370         0.347447        -1.770138
 O         1.588543         0.750556        -1.395680
 O         2.256534         0.110496         0.847995
 H        -0.167260        -0.406633         1.273094
 H        -0.407202         1.258121         0.545635
 H        -0.822542        -0.363201        -0.287754
 H         1.705755        -2.280724         0.040811
 H         1.104654        -1.941972        -1.615973
 H         3.973817        -1.582317        -1.427732
 H         4.141757        -0.668706         0.976088
 H         3.639411         1.895415        -0.192262
 H         4.910171         1.113571        -1.171653
 H         2.987115         0.395707        -2.782193
