19
Iteration:   578charge 0 multiplicity 1
 C        -0.095946         0.060524         0.461705
 C         1.331462        -0.119733        -0.027849
 C         1.635873        -1.423082        -0.921172
 C         3.054013        -1.010580        -1.155157
 C         3.577907        -0.242712         0.109792
 C         3.974808         0.937756        -0.762852
 C         2.968960         0.422724        -1.814533
 O         1.653949         0.788043        -1.243441
 O         2.358728         0.162478         0.871675
 H        -0.374214        -0.544690         1.342123
 H        -0.267031         1.065782         0.820484
 H        -0.813566        -0.315961        -0.255430
 H         1.514165        -2.441420        -0.514793
 H         1.050351        -1.356909        -1.824489
 H         3.841541        -1.729728        -1.497785
 H         4.139746        -0.582409         0.912771
 H         3.924566         2.026041        -0.364363
 H         5.070821         0.862573        -0.981333
 H         2.957432         0.573777        -2.830386
