19
Iteration:   121charge 0 multiplicity 1
 C        -0.049118         0.159809         0.421704
 C         1.327890        -0.069487        -0.136787
 C         1.689034        -1.478886        -0.843000
 C         3.106134        -0.971847        -1.128255
 C         3.614749        -0.247610         0.163604
 C         3.934529         0.978983        -0.751199
 C         2.882313         0.439034        -1.789917
 O         1.610203         0.753388        -1.303755
 O         2.330909         0.024748         0.911056
 H        -0.288357        -0.699472         1.004331
 H         0.003201         0.935152         1.140896
 H        -0.711288         0.334115        -0.363588
 H         1.489324        -2.366846        -0.282457
 H         1.144342        -1.587213        -1.761676
 H         3.874911        -1.553431        -1.666648
 H         4.396944        -0.544613         0.858757
 H         3.639414         1.961743        -0.232766
 H         4.940172         1.018662        -1.223686
 H         2.994574         0.589654        -2.884790
