19
Iteration:  4641charge 0 multiplicity 1
 C        -0.121263         0.135064         0.258912
 C         1.328039        -0.060499        -0.219442
 C         1.721170        -1.505627        -0.624636
 C         3.127958        -0.998602        -1.075036
 C         3.549131        -0.188198         0.262732
 C         3.928529         1.001495        -0.748756
 C         2.999803         0.336211        -1.734736
 O         1.638504         0.757587        -1.418417
 O         2.294796         0.122187         0.892774
 H        -0.621897        -0.723149         0.716901
 H        -0.358904         1.049746         0.875863
 H        -0.784575         0.232275        -0.610662
 H         1.803509        -2.263886         0.110480
 H         1.327303        -1.950017        -1.587329
 H         3.802948        -1.738601        -1.471669
 H         4.398746        -0.346294         0.942936
 H         3.498574         1.970049        -0.433530
 H         4.952894         1.055548        -1.156681
 H         3.256934         0.262985        -2.866978
