19
Iteration:  1451charge 0 multiplicity 1
 C        -0.070124         0.062870         0.447289
 C         1.342257        -0.016679        -0.285952
 C         1.689383        -1.453937        -0.757938
 C         3.122179        -1.016991        -1.064905
 C         3.574940        -0.239846         0.212875
 C         4.014030         0.936012        -0.767365
 C         2.908833         0.475293        -1.703506
 O         1.580272         0.825083        -1.348803
 O         2.276370         0.059297         0.807152
 H        -0.131516        -0.861248         1.092453
 H        -0.244367         0.992292         1.056517
 H        -0.785456         0.049730        -0.338018
 H         1.751729        -2.237157         0.046510
 H         1.120052        -1.756485        -1.679654
 H         3.838997        -1.717343        -1.451538
 H         4.307284        -0.704747         0.923757
 H         3.892493         1.971964        -0.333351
 H         5.078873         0.722000        -1.262950
 H         3.090726         0.696260        -2.821046
