19
Iteration:   314charge 0 multiplicity 1
 C        -0.109788         0.086497         0.435338
 C         1.234568        -0.098001        -0.206487
 C         1.735720        -1.501192        -0.744613
 C         3.123083        -1.012102        -1.105444
 C         3.634296        -0.177574         0.113580
 C         4.064488         0.983077        -0.809410
 C         2.855183         0.426728        -1.737575
 O         1.615559         0.919430        -1.216683
 O         2.295250         0.000491         0.795438
 H        -0.380605        -0.842333         1.062103
 H        -0.061336         1.029348         1.047559
 H        -0.878401         0.315230        -0.380163
 H         1.880341        -2.201036         0.130959
 H         1.036461        -1.966946        -1.535875
 H         3.754071        -1.691268        -1.696852
 H         4.200840        -0.547271         0.940740
 H         4.235388         1.903608        -0.353842
 H         4.907430         0.566027        -1.429670
 H         2.888509         0.493898        -2.853556
