19
Iteration:   682charge 0 multiplicity 1
 C         0.000623         0.048429         0.411720
 C         1.312676        -0.086777        -0.282891
 C         1.691833        -1.418058        -0.778315
 C         3.076497        -1.049024        -1.099655
 C         3.627134        -0.193976         0.178093
 C         3.956025         0.932402        -0.779342
 C         2.872726         0.421941        -1.687477
 O         1.620964         0.893510        -1.220680
 O         2.297577         0.050720         0.793668
 H        -0.150996        -0.914435         1.015606
 H        -0.060104         0.931458         1.041047
 H        -0.751568         0.293611        -0.303276
 H         1.626002        -2.096002         0.067269
 H         1.087885        -1.743645        -1.655178
 H         3.665328        -1.669232        -1.771231
 H         4.232119        -0.667864         0.981413
 H         3.969383         1.884944        -0.317381
 H         4.880416         0.785942        -1.362573
 H         2.961910         0.494183        -2.872290
