19
Iteration:  4967charge 0 multiplicity 1
 C        -0.170455         0.179023         0.259663
 C         1.309397        -0.102911        -0.195165
 C         1.721677        -1.578524        -0.753817
 C         3.156405        -1.089008        -0.990425
 C         3.565320        -0.105645         0.221589
 C         3.998141         0.984817        -0.765468
 C         2.967811         0.342118        -1.733133
 O         1.674299         0.751494        -1.350598
 O         2.279999         0.209314         0.837830
 H        -0.279424        -0.432806         1.210489
 H        -0.443706         1.251069         0.446665
 H        -0.874933        -0.493202        -0.328225
 H         1.433893        -2.296061        -0.035911
 H         1.121194        -1.739249        -1.634027
 H         3.919625        -1.826110        -1.334512
 H         4.210676        -0.560599         1.038287
 H         3.555628         1.956539        -0.449391
 H         5.079691         1.069927        -0.925736
 H         3.041678         0.404982        -2.769519
