19
Iteration:   907charge 0 multiplicity 1
 C        -0.021722         0.143772         0.445036
 C         1.299193        -0.042256        -0.220957
 C         1.713866        -1.436142        -0.730420
 C         3.137898        -0.991105        -1.204947
 C         3.557460        -0.246527         0.156513
 C         3.960101         0.934741        -0.705188
 C         2.887759         0.480653        -1.831273
 O         1.572682         0.767655        -1.336075
 O         2.332007         0.027955         0.912880
 H        -0.142791        -0.850481         0.980768
 H         0.158355         0.898814         1.196377
 H        -0.890593         0.241405        -0.334579
 H         1.687300        -2.193806         0.083141
 H         1.105312        -1.850492        -1.600871
 H         3.836332        -1.768951        -1.602803
 H         4.317245        -0.751844         0.816011
 H         3.666170         1.964437        -0.281794
 H         4.907958         0.835735        -0.986525
 H         3.070238         0.890647        -2.870937
