19
Iteration:  2738
 C        -0.086122         0.161158         0.280187
 C         1.395243        -0.112593        -0.142214
 C         1.754077        -1.586650        -0.749963
 C         3.097447        -0.989266        -1.105291
 C         3.601764        -0.192988         0.226020
 C         3.987996         0.937887        -0.705233
 C         2.889216         0.375288        -1.726661
 O         1.566194         0.786643        -1.351291
 O         2.286503         0.200975         0.849459
 H        -0.558002        -0.158053         1.203398
 H        -0.340687         1.233065         0.426297
 H        -0.784975        -0.263804        -0.444112
 H         1.742418        -2.636213        -0.161705
 H         1.064145        -1.726179        -1.617246
 H         3.972825        -1.569878        -1.623813
 H         4.176707        -0.556841         1.073160
 H         3.940708         1.982239        -0.383668
 H         5.052065         0.729984        -1.046760
 H         3.023648         0.315921        -2.781402
