19
Iteration:   179
 C        -0.056043         0.015978         0.402546
 C         1.321315        -0.016050        -0.123034
 C         1.693687        -1.353840        -0.735975
 C         3.072253        -0.964625        -1.214086
 C         3.509065        -0.247973         0.136177
 C         4.006276         0.958834        -0.758205
 C         2.969166         0.433140        -1.825615
 O         1.595982         0.847381        -1.297210
 O         2.333632        -0.032206         0.895384
 H        -0.165522        -0.865904         1.102393
 H        -0.246147         1.028473         0.804028
 H        -0.876152        -0.018500        -0.344058
 H         1.896394        -2.054861         0.146501
 H         0.913060        -1.730210        -1.420972
 H         3.771519        -1.790217        -1.419232
 H         4.247253        -0.680903         0.895874
 H         3.988448         2.035417        -0.367773
 H         5.011029         0.839413        -1.168565
 H         3.004462         0.552758        -2.847422
