19
Iteration:  3154
 C        -0.127685         0.129784         0.289628
 C         1.301605        -0.094681        -0.232658
 C         1.707264        -1.528797        -0.801964
 C         3.159583        -1.051059        -1.121515
 C         3.572108        -0.101026         0.269097
 C         4.000233         0.938785        -0.728076
 C         2.983899         0.322024        -1.714194
 O         1.581451         0.710401        -1.304381
 O         2.289461         0.238005         0.872712
 H        -0.077089        -0.366603         1.309300
 H        -0.381969         1.247350         0.491393
 H        -0.973110        -0.340888        -0.239296
 H         1.814552        -2.404151        -0.131470
 H         1.002436        -1.717541        -1.634561
 H         4.045761        -1.645111        -1.504225
 H         4.029820        -0.566595         1.149830
 H         3.934176         2.044441        -0.668044
 H         4.946672         0.633845        -1.153749
 H         3.166246         0.823473        -2.700222
