19
Iteration:  1311charge 0 multiplicity 1
 C        -0.017227         0.111370         0.323729
 C         1.325901        -0.155565        -0.154457
 C         1.640290        -1.447989        -0.755548
 C         3.062343        -1.025378        -1.151045
 C         3.587429        -0.160508         0.168702
 C         3.987791         0.978289        -0.750850
 C         2.941481         0.452490        -1.752159
 O         1.630365         0.732810        -1.245191
 O         2.344344         0.107454         0.849888
 H        -0.477871        -0.790872         1.008079
 H        -0.259742         1.157994         0.842286
 H        -0.744940         0.208246        -0.582614
 H         1.639495        -2.277691        -0.045970
 H         1.052069        -1.698142        -1.641439
 H         3.707696        -1.713379        -1.674485
 H         4.239980        -0.562195         0.978406
 H         3.691046         1.989713        -0.384972
 H         5.003910         0.749622        -0.926145
 H         2.830456         0.720896        -2.850777
