19
Iteration:   201
 C        -0.063727         0.147291         0.406587
 C         1.292010        -0.102651        -0.169960
 C         1.641756        -1.529562        -0.897329
 C         3.095750        -1.089034        -1.065006
 C         3.642512        -0.192692         0.114190
 C         3.945055         1.019439        -0.765956
 C         2.868548         0.384076        -1.670900
 O         1.641587         0.850823        -1.197448
 O         2.388997         0.069136         0.821791
 H        -0.028196        -0.572890         1.250151
 H        -0.297502         1.208868         0.620421
 H        -0.901496        -0.172214        -0.273975
 H         1.319776        -2.480463        -0.356046
 H         1.263728        -1.508658        -1.944241
 H         3.700981        -1.665459        -1.777874
 H         4.419102        -0.683838         0.782203
 H         3.621240         2.023098        -0.332116
 H         4.968133         1.110835        -1.170468
 H         2.993758         0.640244        -2.664615
