19
Iteration:  1666charge 0 multiplicity 1
 C        -0.067876         0.211359         0.461636
 C         1.223314        -0.124283        -0.239942
 C         1.708872        -1.577742        -0.795548
 C         3.118080        -1.011945        -1.138329
 C         3.468205        -0.148390         0.163035
 C         3.966970         1.038797        -0.738126
 C         3.056948         0.417829        -1.822739
 O         1.664582         0.728740        -1.274694
 O         2.274535         0.049978         0.888046
 H        -0.137457        -0.504990         1.270280
 H         0.147585         1.236801         0.845963
 H        -0.794951         0.213190        -0.434533
 H         1.655942        -2.263286         0.060738
 H         1.195409        -1.825357        -1.713835
 H         3.934812        -1.671078        -1.333430
 H         4.199019        -0.714903         0.781791
 H         3.640670         2.024986        -0.536085
 H         4.982175         0.892886        -1.026285
 H         3.061315         0.742325        -2.872219
