19
Iteration:  4178
 C        -0.060771         0.182581         0.299014
 C         1.256028        -0.174799        -0.198521
 C         1.729250        -1.540610        -0.769861
 C         3.129858        -1.015860        -1.051149
 C         3.570575        -0.094505         0.302774
 C         3.993637         0.977085        -0.736663
 C         2.937415         0.386188        -1.665235
 O         1.563507         0.730418        -1.392795
 O         2.333793         0.123210         0.821249
 H        -0.391415        -0.516429         1.104465
 H        -0.216529         1.282983         0.601044
 H        -0.817256         0.070863        -0.574594
 H         1.537374        -2.368785        -0.026040
 H         1.160745        -1.667818        -1.858694
 H         3.820028        -1.867192        -1.409460
 H         4.321892        -0.240727         1.099300
 H         3.957563         2.103801        -0.490852
 H         5.029414         0.738275        -1.211886
 H         3.175566         0.425879        -2.716020
