19
Iteration:  1126
 C        -0.040137         0.183037         0.454628
 C         1.314996        -0.137504        -0.169015
 C         1.766045        -1.548999        -0.860355
 C         3.129109        -1.011657        -1.172274
 C         3.527282        -0.202703         0.191801
 C         3.885927         0.899857        -0.762654
 C         2.952508         0.429034        -1.761543
 O         1.631294         0.833911        -1.286586
 O         2.283260         0.123538         0.860479
 H        -0.108803        -0.731476         1.123588
 H        -0.016917         1.132963         1.030906
 H        -0.928637         0.108410        -0.092537
 H         1.837021        -2.407995        -0.147996
 H         1.057519        -1.692631        -1.690886
 H         3.869788        -1.670404        -1.580260
 H         4.200228        -0.650448         0.992928
 H         3.556977         2.029411        -0.431471
 H         5.034178         0.789887        -1.073227
 H         3.043590         0.704191        -2.826935
