19
Iteration:  4405charge 0 multiplicity 1
 C        -0.138320         0.151339         0.216414
 C         1.322666        -0.072289        -0.197005
 C         1.662041        -1.456543        -0.686209
 C         3.148967        -1.032634        -1.031744
 C         3.588806        -0.207968         0.235346
 C         4.005144         1.046537        -0.750839
 C         2.957618         0.342455        -1.699459
 O         1.619862         0.659877        -1.345571
 O         2.290961         0.147173         0.810288
 H        -0.389220        -0.618113         0.893598
 H         0.005987         1.041076         0.806035
 H        -0.879367         0.234447        -0.555409
 H         1.693859        -2.328964         0.147041
 H         1.087052        -1.652560        -1.636121
 H         3.972778        -1.573392        -1.416665
 H         4.250816        -0.420411         1.065733
 H         3.725190         2.042520        -0.430142
 H         4.964892         0.800983        -1.080720
 H         3.038795         0.569091        -2.733322
