19
Iteration:  2605
 C        -0.119488         0.147726         0.302737
 C         1.235240        -0.111770        -0.259519
 C         1.757426        -1.545672        -0.744136
 C         3.132480        -1.037634        -1.049607
 C         3.576937        -0.124663         0.279818
 C         3.942251         0.989351        -0.819090
 C         2.999350         0.315192        -1.770757
 O         1.620314         0.821299        -1.339417
 O         2.317653         0.122628         0.901844
 H        -0.290518        -0.740367         0.902431
 H        -0.056792         1.023043         1.020483
 H        -0.922783         0.405482        -0.368101
 H         1.751968        -2.264449         0.278267
 H         1.068916        -1.872808        -1.565719
 H         3.802325        -1.667335        -1.570118
 H         4.171536        -0.559445         1.089046
 H         3.714133         2.065162        -0.629161
 H         5.002354         0.802911        -1.084461
 H         3.069594         0.378572        -2.811294
