19
Iteration:  1102charge 0 multiplicity 1
 C        -0.058439         0.116428         0.389982
 C         1.298414        -0.110275        -0.205992
 C         1.623465        -1.449046        -0.810015
 C         3.114109        -1.022892        -1.059001
 C         3.653517        -0.195936         0.146367
 C         4.079280         1.055966        -0.733541
 C         2.847717         0.414564        -1.686467
 O         1.541546         0.752232        -1.280464
 O         2.386899         0.054658         0.798009
 H        -0.395913        -0.776996         0.898650
 H        -0.096450         1.060501         0.918881
 H        -0.979852         0.136323        -0.387316
 H         1.581496        -2.294549        -0.148288
 H         1.031924        -1.522249        -1.763777
 H         3.749215        -1.764620        -1.577203
 H         4.289395        -0.463009         0.998972
 H         4.001240         2.130793        -0.255198
 H         5.161697         0.746129        -1.088373
 H         2.715567         0.393132        -2.836632
