19
Iteration:  3684
 C        -0.134280         0.101545         0.300579
 C         1.304601        -0.110533        -0.215358
 C         1.707349        -1.450334        -0.704537
 C         3.169339        -1.001896        -1.098383
 C         3.510619        -0.174106         0.199825
 C         4.016201         0.977290        -0.716753
 C         3.000369         0.392021        -1.679162
 O         1.627616         0.705446        -1.362832
 O         2.283854         0.159720         0.823692
 H        -0.161211        -0.484707         1.238409
 H        -0.447067         1.150571         0.564533
 H        -0.986826        -0.324058        -0.334019
 H         1.583930        -2.264534        -0.000337
 H         1.230640        -1.868558        -1.602079
 H         3.876666        -1.760156        -1.411168
 H         4.195501        -0.366142         1.005082
 H         3.876046         2.016373        -0.480266
 H         4.979076         0.898136        -1.149886
 H         2.988773         0.615074        -2.705537
