19
Iteration:   921charge 0 multiplicity 1
 C        -0.048919         0.086646         0.427196
 C         1.277937        -0.109971        -0.315148
 C         1.742920        -1.469936        -0.777340
 C         3.056306        -0.999414        -1.115620
 C         3.585191        -0.250768         0.156583
 C         3.918699         0.970671        -0.772220
 C         2.928950         0.422109        -1.701760
 O         1.594199         0.917531        -1.307897
 O         2.376104         0.031396         0.883364
 H        -0.401692        -0.773935         1.244112
 H        -0.061103         1.025168         1.125295
 H        -0.921229         0.324917        -0.193603
 H         1.869185        -2.183443         0.080195
 H         1.105667        -1.999543        -1.517102
 H         3.785945        -1.592338        -1.711828
 H         4.373976        -0.693668         0.839888
 H         3.858641         1.979759        -0.337199
 H         4.949227         0.785157        -1.277181
 H         2.990880         0.419054        -2.748288
