19
Iteration:  3010charge 0 multiplicity 1
 C        -0.094896         0.095511         0.280588
 C         1.291421        -0.086772        -0.198451
 C         1.709329        -1.457665        -0.733227
 C         3.227035        -1.008821        -0.942098
 C         3.555294        -0.236087         0.209297
 C         3.996110         0.959878        -0.771883
 C         2.922091         0.379835        -1.720522
 O         1.585954         0.734899        -1.350178
 O         2.299683         0.174248         0.805052
 H        -0.657652        -0.629200         0.910542
 H        -0.131303         0.886349         0.996456
 H        -0.780674         0.409908        -0.560614
 H         1.451970        -2.133118         0.048111
 H         1.279056        -1.744516        -1.623839
 H         3.886933        -1.688004        -1.482025
 H         4.242914        -0.650781         0.971518
 H         3.807012         1.997642        -0.500975
 H         4.990439         0.855377        -1.163402
 H         3.073343         0.660098        -2.822789
