19
Iteration:  3371
 C        -0.090480         0.150512         0.310241
 C         1.317838        -0.096217        -0.259852
 C         1.660678        -1.519008        -0.738342
 C         3.116839        -1.059878        -1.032990
 C         3.602024        -0.153689         0.248114
 C         3.928860         1.050407        -0.680684
 C         2.921545         0.365607        -1.695874
 O         1.613638         0.680368        -1.413176
 O         2.329351         0.145708         0.851406
 H        -0.097148        -0.509356         1.178035
 H         0.038216         1.246109         0.481391
 H        -0.782187        -0.018387        -0.511324
 H         1.417466        -2.327125        -0.044051
 H         1.232954        -1.604479        -1.741487
 H         3.833431        -1.866668        -1.412606
 H         4.415295        -0.406790         0.962060
 H         3.629664         2.124826        -0.478791
 H         5.040415         1.012340        -0.924342
 H         3.300010         0.537385        -2.792353
