19
Iteration:  4267charge 0 multiplicity 1
 C        -0.100099         0.173263         0.353274
 C         1.290628        -0.144455        -0.247685
 C         1.801730        -1.550855        -0.799454
 C         3.170323        -1.042577        -1.146231
 C         3.530540        -0.109956         0.293013
 C         3.968577         0.906415        -0.676209
 C         2.944017         0.309004        -1.738140
 O         1.595779         0.764673        -1.364764
 O         2.246888         0.223822         0.845731
 H        -0.268079        -0.595086         1.142026
 H        -0.145121         1.219040         0.761937
 H        -0.923959         0.062758        -0.460354
 H         1.712094        -2.183433        -0.001704
 H         1.204596        -1.629165        -1.701362
 H         4.085955        -1.608318        -1.316965
 H         4.231480        -0.389179         1.081240
 H         3.865389         1.972243        -0.314339
 H         5.044945         0.663431        -0.988213
 H         3.044759         0.443633        -2.828973
