19
Iteration:  1594charge 0 multiplicity 1
 C        -0.132204         0.062393         0.381771
 C         1.294321        -0.084817        -0.226887
 C         1.743940        -1.539141        -0.798091
 C         3.114468        -1.012566        -1.087631
 C         3.543625        -0.268499         0.191854
 C         4.002044         0.923032        -0.805930
 C         3.001960         0.411901        -1.746970
 O         1.608185         0.915842        -1.232417
 O         2.280594         0.174509         0.813941
 H        -0.111273        -0.615041         1.177791
 H        -0.141377         1.043242         0.781546
 H        -0.773274        -0.095256        -0.359878
 H         1.881868        -2.192795         0.100510
 H         1.019506        -1.908651        -1.522054
 H         3.846061        -1.703832        -1.534548
 H         4.134750        -0.708382         1.013296
 H         3.796385         1.926513        -0.392234
 H         5.052559         0.643946        -1.102414
 H         2.862489         0.527744        -2.830431
