19
Iteration:  1984
 C        -0.118947         0.117530         0.266907
 C         1.353730        -0.107409        -0.203158
 C         1.651637        -1.483819        -0.757567
 C         3.092897        -1.025523        -1.062406
 C         3.621602        -0.169643         0.202723
 C         4.024574         0.989784        -0.714171
 C         2.932681         0.366446        -1.623395
 O         1.520287         0.784966        -1.270330
 O         2.391458         0.145674         0.755077
 H        -0.263909        -0.677318         0.946325
 H        -0.243323         1.082036         0.631433
 H        -0.690263        -0.090262        -0.623013
 H         1.525607        -2.267388        -0.006747
 H         1.086255        -1.634523        -1.690290
 H         3.757868        -1.732692        -1.655600
 H         4.257216        -0.509983         1.036291
 H         4.015411         2.009400        -0.264546
 H         4.973323         0.599303        -1.200370
 H         2.903899         0.349688        -2.698663
