19
Iteration:  4229charge 0 multiplicity 1
 C        -0.091180         0.088112         0.234743
 C         1.297855        -0.057876        -0.205436
 C         1.697519        -1.438558        -0.645076
 C         3.171988        -0.988704        -1.064265
 C         3.596227        -0.115167         0.204185
 C         3.998291         0.982322        -0.678610
 C         2.930426         0.305514        -1.750867
 O         1.597830         0.737623        -1.371334
 O         2.281358         0.099896         0.836326
 H        -0.570815        -0.679864         0.828890
 H        -0.094738         0.995725         0.822595
 H        -0.676133         0.346296        -0.599691
 H         1.522607        -2.330997         0.057182
 H         1.074716        -1.939103        -1.407353
 H         3.841512        -1.787198        -1.426976
 H         4.290991        -0.538688         0.951822
 H         3.846798         2.030175        -0.438806
 H         5.019757         0.911316        -1.014217
 H         3.072358         0.546814        -2.815145
