19
Iteration:  3308charge 0 multiplicity 1
 C        -0.117213         0.107623         0.235767
 C         1.315467        -0.060383        -0.156960
 C         1.734381        -1.459023        -0.716876
 C         3.142145        -0.964778        -1.007145
 C         3.595715        -0.215953         0.235266
 C         4.016242         0.966428        -0.758755
 C         2.949321         0.340102        -1.700005
 O         1.549600         0.751627        -1.357373
 O         2.325520         0.142494         0.830076
 H        -0.469525        -0.195641         1.234498
 H        -0.382579         1.185977         0.152467
 H        -0.847272        -0.414250        -0.450799
 H         1.648088        -2.332914        -0.094081
 H         1.355568        -1.779911        -1.658452
 H         3.869037        -1.738035        -1.316911
 H         4.149213        -0.690500         1.051689
 H         3.882811         2.013570        -0.583081
 H         5.020017         0.796633        -1.116941
 H         2.750029         0.545428        -2.818838
