19
Iteration:  2463
 C        -0.035746         0.160275         0.308216
 C         1.289343        -0.062140        -0.349782
 C         1.699860        -1.507263        -0.634046
 C         3.133146        -1.038285        -0.957118
 C         3.506240        -0.208625         0.180226
 C         3.981880         1.011744        -0.708426
 C         2.920490         0.436478        -1.740698
 O         1.598803         0.737353        -1.357038
 O         2.318541         0.067176         0.770619
 H        -0.033220        -0.232538         1.355162
 H        -0.245250         1.196799         0.740080
 H        -0.866056        -0.118715        -0.390130
 H         1.748816        -1.983114         0.286163
 H         1.234043        -1.946917        -1.529989
 H         3.863380        -1.701845        -1.372939
 H         4.328362        -0.739336         0.680409
 H         3.788690         1.997910        -0.205012
 H         4.958177         0.742951        -1.101627
 H         3.206522         0.665833        -2.731826
