19
Iteration:  2919charge 0 multiplicity 1
 C        -0.078738         0.097821         0.298526
 C         1.341737        -0.126267        -0.175823
 C         1.734549        -1.473785        -0.712105
 C         3.077044        -1.015899        -1.013656
 C         3.551049        -0.166391         0.157563
 C         4.028701         0.981456        -0.723863
 C         2.988102         0.414182        -1.735080
 O         1.627231         0.749873        -1.338492
 O         2.188813         0.136598         0.788605
 H         0.046625        -0.194004         1.339529
 H        -0.118136         1.217722         0.334780
 H        -0.855325        -0.459869        -0.163008
 H         1.749176        -2.212724         0.055944
 H         1.105291        -1.826597        -1.508406
 H         3.831464        -1.568209        -1.624770
 H         4.039847        -0.747936         0.978207
 H         3.926581         2.010881        -0.422652
 H         5.082055         0.775599        -0.908792
 H         3.029435         0.551470        -2.896916
