19
Iteration:  3807
 C        -0.047907         0.131206         0.334181
 C         1.308439        -0.142763        -0.229037
 C         1.721923        -1.433659        -0.768436
 C         3.100069        -1.001654        -1.087030
 C         3.601709        -0.136331         0.252634
 C         3.958639         1.009395        -0.720258
 C         2.966254         0.361626        -1.669184
 O         1.632006         0.699511        -1.367387
 O         2.257865         0.170612         0.808743
 H        -0.367976        -0.867616         0.786290
 H        -0.271406         0.959065         1.023657
 H        -0.614529         0.016985        -0.648490
 H         1.556388        -2.287672        -0.004979
 H         0.994326        -1.799886        -1.554661
 H         3.797148        -1.749225        -1.421392
 H         4.033437        -0.624999         1.181026
 H         3.922912         2.020391        -0.401356
 H         4.951791         0.916074        -1.101409
 H         3.060059         0.308720        -2.742028
