19
Iteration:  4394charge 0 multiplicity 1
 C        -0.007875         0.146318         0.285397
 C         1.335490        -0.129267        -0.199700
 C         1.643237        -1.470853        -0.766140
 C         3.127077        -1.063585        -1.068179
 C         3.507235        -0.098440         0.257765
 C         3.978134         0.982666        -0.706847
 C         3.059981         0.334045        -1.704576
 O         1.579897         0.675322        -1.364993
 O         2.296585         0.215793         0.835786
 H        -0.326009        -0.628692         0.918250
 H        -0.301584         1.080121         0.725670
 H        -0.620773         0.058587        -0.591814
 H         1.642190        -2.460447        -0.060377
 H         0.813577        -1.683791        -1.495368
 H         3.656803        -1.826370        -1.565851
 H         4.167631        -0.435554         1.052630
 H         3.738485         1.971785        -0.334596
 H         4.958828         1.104270        -1.058433
 H         3.138566         0.414624        -2.760171
