19
Iteration:   947charge 0 multiplicity 1
 C        -0.056609         0.119995         0.360517
 C         1.358024        -0.173791        -0.129653
 C         1.684295        -1.419354        -0.811915
 C         3.123178        -1.058573        -1.105846
 C         3.593231        -0.214756         0.083778
 C         3.990300         0.955966        -0.802751
 C         2.897971         0.509690        -1.777267
 O         1.590357         0.728417        -1.177618
 O         2.312197         0.136612         0.886641
 H        -0.337521        -0.533475         1.170533
 H        -0.283586         1.038214         0.875519
 H        -0.773016        -0.004256        -0.465372
 H         1.403444        -2.355915        -0.282112
 H         1.134767        -1.516719        -1.726212
 H         3.787007        -1.669666        -1.698205
 H         4.273769        -0.524599         0.837917
 H         3.937511         1.933329        -0.301457
 H         5.128557         0.663616        -1.136799
 H         2.813155         0.760129        -2.878702
