19
Iteration:  2518charge 0 multiplicity 1
 C        -0.107917         0.136132         0.260288
 C         1.328548        -0.140979        -0.222615
 C         1.661632        -1.513984        -0.813638
 C         3.100516        -1.065451        -0.983631
 C         3.578316        -0.110789         0.231002
 C         4.025877         0.975619        -0.829345
 C         2.941510         0.363381        -1.741161
 O         1.607155         0.764075        -1.291242
 O         2.316643         0.160131         0.946298
 H        -0.096669        -0.332614         1.230915
 H        -0.141759         1.231060         0.243719
 H        -0.919915        -0.270643        -0.332827
 H         1.406471        -2.323842        -0.193343
 H         1.115925        -1.816889        -1.670249
 H         3.773926        -1.717674        -1.456714
 H         4.374567        -0.468144         0.870033
 H         3.852066         2.032759        -0.525694
 H         5.069456         0.906133        -1.139278
 H         3.050489         0.507824        -2.776185
