19
Iteration:  2496
 C        -0.148296         0.142060         0.351860
 C         1.341558        -0.060025        -0.111926
 C         1.752696        -1.440505        -0.753166
 C         3.146233        -1.011911        -1.085853
 C         3.512593        -0.191249         0.196170
 C         3.968695         0.923040        -0.747525
 C         2.966314         0.340985        -1.742916
 O         1.635598         0.705114        -1.301238
 O         2.286650         0.199661         0.795243
 H        -0.302057        -0.376886         1.286702
 H        -0.312898         1.191019         0.122070
 H        -0.718784        -0.393061        -0.418988
 H         1.633262        -2.392529        -0.350461
 H         1.076748        -1.652665        -1.552268
 H         3.893314        -1.681595        -1.439787
 H         4.163894        -0.604811         0.965492
 H         3.956001         1.993811        -0.436468
 H         5.004373         0.743601        -1.040816
 H         2.980562         0.532836        -2.780349
