19
Iteration:   339charge 0 multiplicity 1
 C         0.022430         0.113159         0.385343
 C         1.333435        -0.078562        -0.177162
 C         1.711448        -1.513401        -0.734004
 C         3.032922        -1.006288        -1.168879
 C         3.554597        -0.287492         0.103243
 C         3.893169         0.951996        -0.690968
 C         2.940101         0.443831        -1.803472
 O         1.563516         0.797114        -1.256396
 O         2.397319         0.144013         0.837390
 H        -0.228381        -0.809107         0.972822
 H         0.051801         1.029687         0.969221
 H        -0.652807         0.327039        -0.378820
 H         1.880538        -2.298609        -0.022180
 H         0.945178        -1.625201        -1.458538
 H         3.730733        -1.731464        -1.675377
 H         4.200832        -0.798204         0.818665
 H         3.516616         1.796541        -0.072088
 H         4.888505         1.108660        -0.944168
 H         3.044830         0.726541        -2.940838
