19
Iteration:  3939
 C        -0.095257         0.108205         0.298982
 C         1.280621        -0.094433        -0.214132
 C         1.758514        -1.408042        -0.752440
 C         3.185252        -1.002616        -1.060419
 C         3.533576        -0.218470         0.231599
 C         4.004033         0.955500        -0.705414
 C         2.952582         0.359087        -1.733673
 O         1.574063         0.762696        -1.341812
 O         2.267711         0.140699         0.812942
 H        -0.040065        -0.452520         1.290905
 H        -0.279938         1.219300         0.340065
 H        -0.911831        -0.237110        -0.299282
 H         1.920460        -2.265172        -0.003887
 H         1.282884        -1.806948        -1.637867
 H         3.831655        -1.769555        -1.541001
 H         4.090422        -0.474535         1.147188
 H         3.809754         1.929300        -0.284642
 H         5.019170         0.814877        -0.961275
 H         2.981603         0.461676        -2.829818
