19
Iteration:  2210charge 0 multiplicity 1
 C        -0.070155         0.181073         0.300459
 C         1.295114        -0.079083        -0.135363
 C         1.670017        -1.446938        -0.785187
 C         3.118845        -0.973816        -1.017439
 C         3.586670        -0.202825         0.207311
 C         3.974826         0.986894        -0.750202
 C         2.974833         0.414660        -1.768014
 O         1.582267         0.641579        -1.366805
 O         2.311619         0.114143         0.883786
 H        -0.350555        -0.692140         0.913216
 H        -0.033530         1.056111         0.948500
 H        -0.785080         0.225476        -0.650006
 H         1.512947        -2.353000        -0.226493
 H         1.075175        -1.655045        -1.637834
 H         3.932699        -1.713679        -1.256106
 H         4.279876        -0.705373         0.886298
 H         3.954715         1.988043        -0.482349
 H         5.008555         0.928043        -1.028894
 H         3.106384         0.531341        -2.819591
