19
Iteration:  3125charge 0 multiplicity 1
 C        -0.092417         0.135916         0.292169
 C         1.308834        -0.120582        -0.226208
 C         1.723717        -1.488057        -0.666826
 C         3.119128        -1.004606        -1.016491
 C         3.623446        -0.176703         0.220600
 C         3.966479         1.004323        -0.697356
 C         2.947436         0.310304        -1.697940
 O         1.597661         0.852958        -1.418384
 O         2.277496         0.063058         0.782444
 H         0.043742        -0.054001         1.349926
 H        -0.228813         1.237142         0.292440
 H        -0.772789        -0.511392        -0.275135
 H         1.698203        -2.212982         0.244629
 H         0.996755        -1.870066        -1.556227
 H         3.832294        -1.740437        -1.553416
 H         4.091598        -0.730132         1.066791
 H         3.613298         2.035523        -0.504039
 H         5.022703         0.962709        -1.140732
 H         3.147693         0.563022        -2.713599
