19
Iteration:  1234charge 0 multiplicity 1
 C        -0.067777         0.081476         0.426534
 C         1.333312        -0.091162        -0.255986
 C         1.721161        -1.431358        -0.787864
 C         3.086554        -0.977119        -1.104593
 C         3.583828        -0.282649         0.209054
 C         3.986837         0.952202        -0.729199
 C         2.971040         0.372112        -1.790511
 O         1.561076         0.825147        -1.249104
 O         2.334485         0.126127         0.801319
 H        -0.130692        -0.642874         1.354895
 H        -0.142508         1.210596         0.704512
 H        -1.017521        -0.035723        -0.242159
 H         1.623156        -2.225536        -0.070042
 H         1.183801        -1.574969        -1.736558
 H         3.687431        -1.706853        -1.590556
 H         4.123326        -0.852758         1.000528
 H         3.590258         1.816183        -0.199019
 H         4.934213         0.997989        -1.227169
 H         3.050904         0.575668        -2.904450
