19
Iteration:  4277charge 0 multiplicity 1
 C        -0.058029         0.161679         0.324041
 C         1.328267        -0.107730        -0.215817
 C         1.766741        -1.432328        -0.753419
 C         3.172368        -1.034111        -1.049618
 C         3.472175        -0.166692         0.265189
 C         3.988644         0.958926        -0.743442
 C         2.987036         0.387595        -1.769333
 O         1.615164         0.710655        -1.366154
 O         2.202346         0.131620         0.827844
 H        -0.190382        -0.481332         1.200243
 H        -0.199185         1.192975         0.694696
 H        -0.909436        -0.082274        -0.361257
 H         1.832260        -2.116154        -0.062143
 H         1.080256        -1.892795        -1.439696
 H         3.906032        -1.683669        -1.528205
 H         4.073112        -0.532093         1.088788
 H         3.891559         1.993102        -0.319729
 H         5.070403         0.817507        -0.983975
 H         3.083278         0.362661        -2.836231
