19
Iteration:  3537
 C        -0.047569         0.086027         0.212694
 C         1.301324        -0.145842        -0.194577
 C         1.604891        -1.503783        -0.712407
 C         3.115519        -1.081129        -1.017986
 C         3.544410        -0.204501         0.276026
 C         3.940496         1.044766        -0.736364
 C         3.007741         0.388032        -1.753836
 O         1.617705         0.812949        -1.361671
 O         2.354488         0.132797         0.877623
 H        -0.159904        -0.369920         1.203054
 H        -0.288999         1.148949         0.156122
 H        -0.871145        -0.275412        -0.457391
 H         1.584489        -2.273687         0.040872
 H         1.163758        -1.763995        -1.654077
 H         3.938266        -1.609415        -1.501219
 H         4.269457        -0.424350         1.074627
 H         3.741019         2.085642        -0.378970
 H         5.033342         1.065911        -1.161816
 H         3.040961         0.541588        -2.920097
