19
Iteration:  2119
 C        -0.083273         0.071964         0.352189
 C         1.289012        -0.063727        -0.255473
 C         1.727796        -1.405461        -0.834007
 C         3.182855        -1.042502        -1.008975
 C         3.597277        -0.249203         0.183674
 C         4.008064         0.926032        -0.727682
 C         2.933415         0.301513        -1.699685
 O         1.609194         0.833717        -1.273852
 O         2.240679         0.198120         0.787826
 H        -0.235959        -0.399215         1.347872
 H        -0.295107         1.169872         0.543366
 H        -1.054850        -0.241529        -0.052811
 H         1.679094        -2.203255        -0.150257
 H         1.264108        -1.780961        -1.696562
 H         3.785845        -1.753774        -1.552027
 H         4.300471        -0.627411         0.947408
 H         3.778497         1.938423        -0.316199
 H         5.045081         0.778820        -1.046821
 H         2.881511         0.413458        -2.834663
