19
Iteration:  2193charge 0 multiplicity 1
 C        -0.025750         0.215948         0.274401
 C         1.311492        -0.164782        -0.175516
 C         1.767110        -1.549627        -0.736973
 C         3.097386        -1.077995        -1.177565
 C         3.578883        -0.157602         0.204524
 C         3.977396         0.987860        -0.668155
 C         2.915548         0.378640        -1.665552
 O         1.591773         0.717547        -1.290396
 O         2.298978         0.180168         0.801563
 H        -0.717948        -0.398349         0.872583
 H        -0.054828         1.241342         0.693388
 H        -0.648652         0.369895        -0.518490
 H         1.673681        -2.342753         0.090709
 H         1.052656        -1.885589        -1.613754
 H         3.744860        -1.697296        -1.792224
 H         4.166274        -0.449106         1.101239
 H         3.739874         2.043600        -0.202065
 H         4.987782         0.829439        -1.157772
 H         2.950308         0.594176        -2.777467
