19
Iteration:   604
 C        -0.033926         0.158497         0.458067
 C         1.299298        -0.081992        -0.198169
 C         1.689944        -1.481370        -0.830692
 C         3.093722        -1.008515        -1.178401
 C         3.626074        -0.270776         0.129032
 C         3.968933         0.965481        -0.704952
 C         2.923101         0.454725        -1.695663
 O         1.555732         0.805154        -1.298835
 O         2.328675         0.049997         0.820431
 H        -0.007788        -0.370865         1.398796
 H        -0.154342         1.194507         0.787044
 H        -0.950322        -0.254774        -0.028253
 H         1.707623        -2.276451        -0.084031
 H         1.039713        -1.801310        -1.652949
 H         3.865727        -1.578354        -1.669572
 H         4.243133        -0.745686         0.954588
 H         3.925229         1.959088        -0.340458
 H         4.961459         0.904239        -1.099537
 H         3.018662         0.716000        -2.830094
