19
Iteration:  3613charge 0 multiplicity 1
 C        -0.080894         0.137658         0.295603
 C         1.318132        -0.103501        -0.171138
 C         1.788112        -1.469285        -0.676700
 C         3.161086        -1.046787        -0.992818
 C         3.552704        -0.168847         0.235366
 C         3.896561         0.975349        -0.729746
 C         2.962601         0.341157        -1.800269
 O         1.605881         0.778554        -1.456221
 O         2.262256         0.118632         0.876858
 H        -0.417153        -0.709444         0.879342
 H        -0.137982         1.052654         0.853666
 H        -0.831251         0.318784        -0.463455
 H         1.671126        -2.378441        -0.040167
 H         1.135805        -1.741519        -1.527887
 H         3.982371        -1.660089        -1.331398
 H         4.196228        -0.888644         0.794029
 H         3.736365         2.028293        -0.360296
 H         5.011545         1.179672        -1.029736
 H         3.189084         0.715662        -2.893716
