19
Iteration:  4425charge 0 multiplicity 1
 C        -0.123865         0.220194         0.263541
 C         1.287618        -0.155019        -0.249855
 C         1.819316        -1.572750        -0.685170
 C         3.184109        -1.049843        -0.976786
 C         3.528735        -0.144327         0.214088
 C         3.996539         0.924088        -0.773609
 C         2.963193         0.366297        -1.755592
 O         1.551464         0.868627        -1.349232
 O         2.273653         0.122471         0.869731
 H        -0.722605        -0.600388         0.687685
 H        -0.261672         1.168104         0.880106
 H        -0.657604         0.231008        -0.691362
 H         1.997151        -2.293660         0.231109
 H         1.363639        -2.080297        -1.470104
 H         3.795312        -1.732774        -1.470468
 H         4.266311        -0.403122         1.004616
 H         3.768188         1.886488        -0.286412
 H         4.950169         0.681280        -1.264426
 H         3.036788         0.488355        -2.851717
