19
Iteration:   412charge 0 multiplicity 1
 C        -0.083094         0.067217         0.377027
 C         1.309694        -0.098053        -0.136791
 C         1.648735        -1.491909        -0.744066
 C         3.025439        -1.014157        -1.212542
 C         3.589497        -0.234339         0.133723
 C         3.979365         1.011019        -0.722522
 C         2.936860         0.477604        -1.808228
 O         1.631862         0.843049        -1.255080
 O         2.394366         0.044743         0.875307
 H        -0.108275        -0.537782         1.356755
 H        -0.409978         1.120015         0.484806
 H        -0.808289        -0.335500        -0.318152
 H         1.730360        -2.281104         0.046612
 H         0.999752        -1.650143        -1.660874
 H         3.696108        -1.867866        -1.413406
 H         4.341823        -0.699153         0.724955
 H         3.805408         1.972009        -0.255327
 H         5.036298         0.964923        -1.165968
 H         3.029054         0.765326        -2.825782
