19
Iteration:  3915charge 0 multiplicity 1
 C        -0.091087         0.139714         0.310244
 C         1.297304        -0.135793        -0.210610
 C         1.721857        -1.589047        -0.774200
 C         3.109464        -1.046528        -1.061400
 C         3.503220        -0.146712         0.220483
 C         3.999569         1.000136        -0.731993
 C         2.967236         0.509573        -1.715324
 O         1.642037         0.735403        -1.377763
 O         2.278093         0.112425         0.846332
 H        -0.066409        -0.331348         1.393780
 H        -0.145818         1.266319         0.226647
 H        -1.076278        -0.069323        -0.243303
 H         1.751319        -2.204954         0.150280
 H         1.204578        -1.982167        -1.632889
 H         3.980122        -1.628167        -1.207712
 H         4.137022        -0.538638         1.066699
 H         3.977217         2.024661        -0.357607
 H         5.010082         0.657756        -1.046941
 H         3.020219         0.724585        -2.762545
