19
Iteration:    56
 C        -0.001327         0.095675         0.360806
 C         1.401791        -0.069981        -0.110544
 C         1.666657        -1.416023        -0.873678
 C         3.105755        -1.023789        -1.158434
 C         3.601161        -0.197425         0.187228
 C         4.045124         0.913701        -0.723970
 C         2.897880         0.429803        -1.746418
 O         1.435572         0.739331        -1.236825
 O         2.373579         0.124827         0.868654
 H        -0.313096        -0.292888         1.317029
 H        -0.307567         1.122258         0.391153
 H        -0.647532        -0.353165        -0.336741
 H         1.465491        -2.427936        -0.562306
 H         1.039776        -1.398688        -1.755520
 H         3.738792        -1.631246        -1.806289
 H         4.204418        -0.530844         1.033415
 H         4.069548         1.906265        -0.191329
 H         4.965388         0.558815        -1.115065
 H         2.842294         0.699579        -2.761498
