19
Iteration:  4971charge 0 multiplicity 1
 C        -0.175530         0.151017         0.261188
 C         1.299117        -0.124726        -0.203545
 C         1.672693        -1.547253        -0.735704
 C         3.151742        -1.091344        -1.001355
 C         3.624882        -0.091052         0.210380
 C         3.982529         0.997567        -0.748268
 C         2.986668         0.325236        -1.734505
 O         1.691751         0.731662        -1.341578
 O         2.285490         0.222775         0.857402
 H        -0.282667        -0.449217         1.133883
 H        -0.360511         1.189906         0.334897
 H        -0.839239        -0.353649        -0.431022
 H         1.419813        -2.355589         0.071987
 H         0.968940        -1.693512        -1.708866
 H         3.826643        -1.774220        -1.455186
 H         4.092801        -0.547435         1.035854
 H         3.505671         1.915321        -0.439664
 H         5.056602         1.184731        -0.981725
 H         3.085917         0.443542        -2.854815
