19
Iteration:  3852
 C        -0.135839         0.109909         0.269784
 C         1.317669        -0.076674        -0.205171
 C         1.714436        -1.474420        -0.710861
 C         3.159124        -0.986450        -1.075272
 C         3.546061        -0.179702         0.221096
 C         4.027631         1.016840        -0.753547
 C         2.950339         0.359229        -1.686068
 O         1.625539         0.732983        -1.319611
 O         2.242544         0.086542         0.791123
 H        -0.309822        -0.617216         1.112388
 H        -0.001886         1.080614         0.729366
 H        -0.840544         0.100538        -0.498365
 H         1.701815        -2.255204         0.131405
 H         1.113776        -2.038965        -1.425101
 H         3.967216        -1.520498        -1.583242
 H         4.220585        -0.370142         1.090507
 H         3.866054         2.038819        -0.474340
 H         5.046295         0.954884        -1.054301
 H         2.998468         0.549632        -2.759860
