19
Iteration:  3921
 C        -0.100019         0.160586         0.366475
 C         1.367588        -0.139866        -0.231149
 C         1.767683        -1.607448        -0.745669
 C         3.081506        -1.013818        -1.105331
 C         3.536958        -0.114889         0.248587
 C         3.981841         0.958721        -0.695370
 C         2.984059         0.496652        -1.722660
 O         1.636969         0.747159        -1.393817
 O         2.192541         0.120839         0.851640
 H        -0.183656        -0.286359         1.298068
 H        -0.223897         1.229869         0.339070
 H        -0.816146        -0.283660        -0.332354
 H         1.524339        -2.287529         0.098167
 H         1.054449        -1.994102        -1.526975
 H         4.020819        -1.559721        -1.412895
 H         4.270368        -0.688416         0.818787
 H         4.075357         2.053682        -0.507309
 H         4.970389         0.662434        -1.125097
 H         3.203259         0.649940        -2.818167
