19
Iteration:  1253charge 0 multiplicity 1
 C        -0.006150         0.158527         0.421500
 C         1.346743        -0.134651        -0.079359
 C         1.646564        -1.520745        -0.867466
 C         3.096989        -1.078417        -1.160731
 C         3.560120        -0.192379         0.123827
 C         3.930975         0.970228        -0.687422
 C         2.945486         0.457092        -1.671817
 O         1.584335         0.761750        -1.350135
 O         2.326800         0.156653         0.850716
 H        -0.153469        -0.664027         1.140911
 H         0.073549         1.193311         0.780036
 H        -0.619614         0.030140        -0.634117
 H         1.626387        -2.455107        -0.246373
 H         0.937850        -1.613241        -1.748624
 H         3.951346        -1.645236        -1.537879
 H         4.207639        -0.569649         0.926269
 H         3.895729         1.934547        -0.310691
 H         4.976648         0.784730        -0.976745
 H         2.881916         0.657233        -2.807041
