19
Iteration:  1806charge 0 multiplicity 1
 C        -0.030632         0.191196         0.377553
 C         1.295185        -0.059202        -0.286025
 C         1.789667        -1.508532        -0.711298
 C         3.142092        -1.043782        -1.091748
 C         3.545678        -0.268318         0.186638
 C         3.929597         0.951356        -0.677841
 C         2.926006         0.400891        -1.685112
 O         1.538357         0.849594        -1.438623
 O         2.314883         0.065016         0.843085
 H        -0.244154        -0.550468         1.124166
 H        -0.058922         1.132673         0.979480
 H        -0.989778         0.233699        -0.267006
 H         2.021355        -2.059707         0.284455
 H         1.260366        -2.151141        -1.558811
 H         3.845088        -1.504077        -1.697701
 H         4.246603        -0.595309         0.961855
 H         3.656924         1.995054        -0.270892
 H         5.019552         0.786841        -1.106065
 H         3.023998         0.378231        -2.738806
