19
Iteration:  3848charge 0 multiplicity 1
 C        -0.142152         0.127050         0.307626
 C         1.308294        -0.116388        -0.196721
 C         1.731550        -1.504872        -0.729405
 C         3.188588        -1.003089        -1.038636
 C         3.523373        -0.172245         0.243250
 C         4.038980         1.004807        -0.754912
 C         2.918916         0.372616        -1.681496
 O         1.636006         0.771146        -1.339713
 O         2.241570         0.093319         0.771896
 H        -0.281680        -0.716281         1.047365
 H        -0.150660         1.173257         0.737069
 H        -0.912945         0.150125        -0.595822
 H         1.843482        -2.207935         0.083274
 H         1.045095        -2.041918        -1.407133
 H         3.921458        -1.508621        -1.656075
 H         4.266219        -0.404042         1.019909
 H         3.892185         2.054943        -0.434757
 H         5.072929         0.939561        -1.212846
 H         3.056664         0.495125        -2.757642
