19
Iteration:  3249
 C        -0.153506         0.209945         0.337720
 C         1.293742        -0.110285        -0.221895
 C         1.744010        -1.530508        -0.763908
 C         3.215540        -1.060753        -1.039122
 C         3.622769        -0.114081         0.257566
 C         3.955669         0.948214        -0.718531
 C         2.948842         0.375239        -1.727256
 O         1.585459         0.716541        -1.408547
 O         2.231260         0.144404         0.844935
 H        -0.311110        -0.566904         1.073174
 H         0.027836         1.121757         0.874554
 H        -0.865260         0.295413        -0.441548
 H         1.777861        -2.285914         0.022258
 H         1.324356        -1.878860        -1.712924
 H         4.007863        -1.741189        -1.406051
 H         4.317215        -0.388834         1.071031
 H         3.923574         2.032608        -0.442408
 H         4.947839         0.654679        -1.159927
 H         2.859360         0.629487        -2.822105
