19
Iteration:  3898charge 0 multiplicity 1
 C        -0.104087         0.208395         0.298308
 C         1.287651        -0.157552        -0.287675
 C         1.782487        -1.466506        -0.738672
 C         3.188223        -1.015861        -1.023807
 C         3.613263        -0.170600         0.222159
 C         3.972167         0.987266        -0.691936
 C         2.964045         0.343211        -1.725385
 O         1.550137         0.745060        -1.273798
 O         2.242195         0.111798         0.803663
 H        -0.240976        -0.283237         1.211394
 H        -0.232491         1.286981         0.374138
 H        -0.752589        -0.244557        -0.384944
 H         1.533502        -2.319101        -0.070187
 H         1.207030        -1.737853        -1.654250
 H         3.781733        -1.761466        -1.615632
 H         4.376258        -0.630880         0.844214
 H         3.735701         2.010105        -0.352571
 H         4.978371         1.020637        -1.094285
 H         3.096343         0.470409        -2.832652
