19
Iteration:  4800
 C        -0.257940         0.156170         0.297414
 C         1.347648        -0.065209        -0.228745
 C         1.741517        -1.564424        -0.680048
 C         3.168653        -1.056679        -1.045778
 C         3.525229        -0.168252         0.218560
 C         3.912403         0.991780        -0.746954
 C         3.015099         0.340020        -1.751985
 O         1.661211         0.742852        -1.388080
 O         2.319569         0.198855         0.857501
 H        -0.516886        -0.648193         1.012222
 H        -0.199598         1.151518         0.824900
 H        -0.878547         0.112286        -0.595089
 H         1.905429        -2.177940         0.166581
 H         1.091318        -2.050333        -1.323631
 H         3.942572        -1.674147        -1.497548
 H         4.246521        -0.637423         0.871155
 H         3.711073         1.963560        -0.313548
 H         4.967330         1.055199        -1.074823
 H         3.214983         0.501043        -2.798410
