19
Iteration:   792
 C        -0.033401         0.116797         0.415517
 C         1.312984        -0.173413        -0.167627
 C         1.682556        -1.491674        -0.840109
 C         3.109122        -1.013284        -1.123542
 C         3.611725        -0.236371         0.161384
 C         4.016055         0.922671        -0.747699
 C         2.875149         0.534098        -1.687924
 O         1.508905         0.845607        -1.308954
 O         2.345373         0.090066         0.837460
 H        -0.067292        -0.333556         1.482848
 H        -0.017100         1.215682         0.593657
 H        -0.883198        -0.323562        -0.048710
 H         1.648528        -2.385885        -0.191916
 H         1.190771        -1.767308        -1.795849
 H         3.839958        -1.642622        -1.668829
 H         4.222255        -0.688621         0.969885
 H         4.013997         1.927866        -0.296397
 H         5.100081         0.751609        -1.198488
 H         2.995426         0.634871        -2.887087
