19
Iteration:  2634charge 0 multiplicity 1
 C        -0.092142         0.104611         0.255567
 C         1.335736        -0.154637        -0.161204
 C         1.718482        -1.507825        -0.650491
 C         3.150974        -1.061728        -0.992129
 C         3.547043        -0.199227         0.160667
 C         3.965497         0.980481        -0.815098
 C         2.952757         0.408776        -1.784391
 O         1.608500         0.788145        -1.309945
 O         2.300840         0.181914         0.861475
 H        -0.331742        -0.742166         0.925796
 H        -0.318092         1.079665         0.622073
 H        -0.865300         0.286356        -0.534211
 H         1.527809        -2.307761        -0.047959
 H         1.142448        -1.589272        -1.583769
 H         3.868085        -1.784209        -1.335971
 H         4.195176        -0.617982         0.986682
 H         3.866072         2.031970        -0.463459
 H         4.981985         0.754276        -1.135295
 H         3.053441         0.784838        -2.875043
