19
Iteration:  2908charge 0 multiplicity 1
 C        -0.066269         0.125932         0.372570
 C         1.244055        -0.132451        -0.252492
 C         1.750493        -1.574905        -0.714987
 C         3.147613        -0.966303        -1.123314
 C         3.500886        -0.152514         0.255897
 C         4.049200         0.940951        -0.728847
 C         2.941932         0.360564        -1.718707
 O         1.628890         0.842639        -1.349751
 O         2.261062         0.130931         0.815322
 H        -0.284894        -0.227908         1.362419
 H        -0.526404         1.124628         0.219187
 H        -0.721744        -0.403384        -0.295920
 H         1.634914        -2.172359         0.141461
 H         1.170196        -1.877768        -1.574238
 H         3.995149        -1.613686        -1.473043
 H         4.285726        -0.414015         1.028919
 H         3.927390         1.984980        -0.488215
 H         5.057854         0.673468        -1.028928
 H         3.013806         0.398725        -2.888272
