19
Iteration:  2361
 C        -0.048483         0.071289         0.304642
 C         1.304436        -0.138742        -0.149181
 C         1.660171        -1.492137        -0.803920
 C         3.113952        -1.036569        -1.022040
 C         3.626803        -0.221589         0.253043
 C         4.053291         0.945578        -0.710089
 C         2.856222         0.411073        -1.644299
 O         1.548687         0.742499        -1.367214
 O         2.333596         0.259833         0.756203
 H        -0.411261        -0.581457         1.020264
 H        -0.111711         1.073134         0.553869
 H        -0.709309        -0.013961        -0.531761
 H         1.503848        -2.185755        -0.002058
 H         1.177118        -1.697774        -1.703519
 H         3.744553        -1.774120        -1.565205
 H         4.396008        -0.413465         0.969207
 H         3.859810         1.947519        -0.347377
 H         5.112393         0.888196        -1.131451
 H         3.130396         0.517028        -2.687829
