19
Iteration:  4373
 C        -0.105564         0.123012         0.326193
 C         1.327823        -0.073191        -0.233784
 C         1.734397        -1.484471        -0.741579
 C         3.191343        -1.047520        -0.966868
 C         3.509616        -0.236884         0.217811
 C         3.934195         0.958060        -0.723289
 C         2.948346         0.320946        -1.760093
 O         1.676106         0.796881        -1.415492
 O         2.250840         0.194743         0.828106
 H        -0.184780        -0.421596         1.224843
 H        -0.155195         1.121020         0.712271
 H        -1.010533        -0.083989        -0.198257
 H         1.615257        -2.435040        -0.026486
 H         1.202822        -1.828514        -1.706767
 H         4.025101        -1.610597        -1.360149
 H         4.146005        -0.455482         1.051130
 H         3.714190         1.961066        -0.351270
 H         4.958589         0.908467        -1.045587
 H         2.984025         0.523157        -2.792612
