19
Iteration:  3204
 C        -0.121509         0.162771         0.294477
 C         1.324691        -0.098381        -0.276387
 C         1.779940        -1.501058        -0.661733
 C         3.107726        -1.040208        -1.085217
 C         3.549675        -0.175557         0.218583
 C         3.916706         1.017791        -0.746686
 C         2.986584         0.363543        -1.754639
 O         1.658881         0.738993        -1.359693
 O         2.300538         0.111690         0.884725
 H        -0.534115        -0.686980         0.818689
 H        -0.224338         1.031996         0.846153
 H        -0.783185         0.300194        -0.559877
 H         1.829951        -2.027627         0.277783
 H         1.037854        -1.943349        -1.318941
 H         3.595500        -1.735996        -1.658529
 H         4.114052        -0.437305         1.081064
 H         3.615583         2.021534        -0.404575
 H         4.993320         0.970857        -1.021357
 H         3.091858         0.409184        -2.788749
