19
Iteration:  2324charge 0 multiplicity 1
 C        -0.066517         0.179416         0.378047
 C         1.345516        -0.169322        -0.209303
 C         1.729668        -1.434886        -0.746820
 C         3.140429        -1.039546        -1.130275
 C         3.489999        -0.115818         0.204586
 C         3.924056         0.976662        -0.787546
 C         3.010809         0.348797        -1.776951
 O         1.717755         0.766071        -1.313514
 O         2.179868         0.062439         0.872193
 H        -0.213382        -0.188637         1.414264
 H        -0.173142         1.281692         0.522948
 H        -0.745169        -0.155217        -0.339470
 H         1.880560        -2.184028         0.089591
 H         1.124524        -2.001017        -1.556689
 H         3.940764        -1.675184        -1.462746
 H         4.070000        -0.402121         1.098661
 H         3.652718         2.034785        -0.533505
 H         4.975232         0.845216        -0.953201
 H         2.846029         0.503522        -2.867125
