19
Iteration:  4358
 C        -0.104803         0.185274         0.345647
 C         1.230782        -0.094974        -0.317357
 C         1.759328        -1.468898        -0.725140
 C         3.150675        -1.045087        -1.039178
 C         3.577194        -0.097375         0.288806
 C         4.033141         0.967180        -0.749989
 C         3.007137         0.351221        -1.693670
 O         1.572859         0.757726        -1.321290
 O         2.223368         0.080119         0.761569
 H        -0.109640        -0.444217         1.290013
 H        -0.243167         1.295246         0.497048
 H        -0.771310        -0.300178        -0.388587
 H         1.664405        -2.063005         0.189518
 H         1.259530        -1.824415        -1.589345
 H         3.850270        -1.799362        -1.426295
 H         4.223158        -0.598722         1.040077
 H         3.814554         2.014553        -0.482332
 H         5.050998         0.701456        -1.143680
 H         3.281587         0.309381        -2.807965
