19
Iteration:  4407charge 0 multiplicity 1
 C        -0.155079         0.153553         0.219820
 C         1.307893        -0.069639        -0.196935
 C         1.686477        -1.468247        -0.676045
 C         3.146660        -1.028884        -1.021787
 C         3.607791        -0.210853         0.229525
 C         3.996093         1.038070        -0.752807
 C         2.934611         0.357465        -1.708196
 O         1.629705         0.669591        -1.346044
 O         2.286120         0.139263         0.811360
 H        -0.387769        -0.618634         0.909118
 H        -0.009492         1.032015         0.778615
 H        -0.875528         0.304752        -0.581486
 H         1.653618        -2.266542         0.164876
 H         1.148570        -1.693952        -1.691339
 H         4.026993        -1.603793        -1.378544
 H         4.279783        -0.503258         1.042007
 H         3.774609         2.066536        -0.462502
 H         4.996018         0.798833        -1.066485
 H         3.052431         0.543301        -2.748000
