19
Iteration:   483charge 0 multiplicity 1
 C        -0.047645         0.184171         0.494792
 C         1.335855        -0.055206        -0.215613
 C         1.718150        -1.497882        -0.832535
 C         3.126439        -1.021112        -1.102012
 C         3.568962        -0.248731         0.188382
 C         3.919177         1.045592        -0.788474
 C         2.923109         0.433718        -1.747779
 O         1.624795         0.851553        -1.317672
 O         2.282159        -0.069275         0.845209
 H        -0.147013        -0.670051         1.121277
 H        -0.090096         1.058045         1.205951
 H        -1.040506         0.149064        -0.148065
 H         1.866956        -2.247461        -0.010030
 H         1.173168        -1.934701        -1.655421
 H         3.698924        -1.732856        -1.712404
 H         4.388981        -0.683981         0.894235
 H         3.696737         2.132776        -0.572313
 H         4.971957         0.994494        -1.054481
 H         3.047351         0.592566        -2.936505
