19
Iteration:  1211
 C        -0.089410         0.113166         0.427935
 C         1.320314        -0.088036        -0.233666
 C         1.650123        -1.512742        -0.750475
 C         3.105090        -1.036264        -1.092976
 C         3.597008        -0.163003         0.121149
 C         4.053982         1.002855        -0.765785
 C         2.900471         0.454113        -1.731937
 O         1.633096         0.885547        -1.315386
 O         2.305414        -0.025012         0.875003
 H        -0.186619        -0.602986         1.328879
 H        -0.601448         1.117085         0.613036
 H        -0.946962        -0.317648        -0.339914
 H         1.558190        -2.121152         0.145822
 H         1.079464        -1.900852        -1.623245
 H         3.744475        -1.702484        -1.641149
 H         4.387365        -0.515166         0.834389
 H         4.016724         2.002037        -0.441972
 H         4.932436         0.575519        -1.165521
 H         3.159023         0.720974        -2.818981
