19
Iteration:  4870charge 0 multiplicity 1
 C        -0.149028         0.171052         0.259382
 C         1.270862        -0.157140        -0.151467
 C         1.740893        -1.452751        -0.665790
 C         3.140463        -0.983813        -1.006136
 C         3.490635        -0.152413         0.173373
 C         4.007457         1.001759        -0.808417
 C         2.994201         0.359288        -1.736766
 O         1.674273         0.709834        -1.341851
 O         2.262261         0.096781         0.828915
 H        -0.574987        -0.489063         1.037577
 H        -0.073999         1.139927         0.737114
 H        -0.774039         0.158378        -0.662384
 H         1.715146        -2.230990         0.178885
 H         1.087838        -1.924655        -1.580016
 H         4.041345        -1.601126        -1.189675
 H         4.148408        -0.409165         1.028578
 H         4.012035         2.114778        -0.810607
 H         5.056376         0.703582        -0.966122
 H         3.037515         0.460159        -2.802030
