19
Iteration:   388
 C         0.024779         0.174898         0.445237
 C         1.256103        -0.171752        -0.216216
 C         1.801438        -1.521171        -0.870441
 C         3.130173        -0.982997        -1.189170
 C         3.533777        -0.199512         0.161258
 C         3.950469         0.969178        -0.772611
 C         2.842098         0.399205        -1.760253
 O         1.613000         0.850948        -1.152510
 O         2.257232         0.035374         0.832023
 H         0.029472        -0.385874         1.359627
 H         0.176723         1.254753         0.548334
 H        -0.923818         0.133802        -0.160796
 H         1.780721        -2.043447         0.102763
 H         1.187559        -1.880836        -1.748101
 H         3.914586        -1.589571        -1.631167
 H         4.244073        -0.654939         0.891825
 H         3.898693         2.018191        -0.502939
 H         5.077291         0.681268        -0.987489
 H         2.826175         0.530928        -2.781416
