19
Iteration:  1833
 C        -0.117152         0.132046         0.323037
 C         1.364617        -0.194412        -0.150693
 C         1.645209        -1.468947        -0.796372
 C         3.132068        -1.088393        -1.037025
 C         3.542804        -0.186770         0.116047
 C         4.012401         0.987766        -0.779422
 C         2.930075         0.478640        -1.724982
 O         1.638979         0.721238        -1.277450
 O         2.308951         0.195791         0.883976
 H        -0.632546        -0.644263         1.026232
 H        -0.022128         1.137957         0.811062
 H        -0.792330         0.222201        -0.662573
 H         1.605462        -2.298324        -0.130859
 H         1.186082        -1.750777        -1.678861
 H         3.866855        -1.873904        -1.474237
 H         4.313369        -0.412370         0.880675
 H         3.897221         1.931211        -0.315865
 H         4.952217         0.728603        -1.146873
 H         2.947295         0.630909        -2.880079
