19
Iteration:  4038
 C        -0.117479         0.156682         0.295702
 C         1.381507        -0.092842        -0.194977
 C         1.777581        -1.526120        -0.772124
 C         3.102838        -1.039003        -1.027364
 C         3.549199        -0.214304         0.202503
 C         3.904272         0.980207        -0.693267
 C         2.977801         0.439566        -1.755378
 O         1.614437         0.667507        -1.397176
 O         2.298032         0.210338         0.873774
 H        -0.231613        -0.744932         0.901561
 H        -0.083244         1.112217         0.890790
 H        -1.028217         0.369574        -0.318361
 H         1.552483        -2.398731        -0.125292
 H         1.094153        -1.670404        -1.568738
 H         3.799628        -1.901250        -1.361999
 H         4.264662        -0.564038         0.972048
 H         3.685352         1.981585        -0.303265
 H         4.919784         0.935391        -0.980359
 H         3.128538         0.646426        -2.860647
