19
Iteration:   376charge 0 multiplicity 1
 C        -0.060629         0.237617         0.481309
 C         1.307474        -0.162016        -0.258204
 C         1.748792        -1.520170        -0.833044
 C         3.164310        -0.995695        -1.069407
 C         3.570779        -0.185191         0.170331
 C         3.973286         0.962997        -0.765997
 C         2.879988         0.467379        -1.763481
 O         1.515193         0.828559        -1.250223
 O         2.342628        -0.037032         0.824237
 H        -0.257693        -0.281265         1.359852
 H         0.079437         1.232374         0.886450
 H        -0.987296         0.095393        -0.151613
 H         1.715877        -2.520414        -0.374205
 H         1.321172        -1.789674        -1.808055
 H         3.864711        -1.678865        -1.491849
 H         4.362731        -0.543313         0.901300
 H         3.965594         1.983095        -0.323405
 H         4.921961         0.766469        -1.396426
 H         2.883782         0.671841        -2.787455
