19
Iteration:   110
 C         0.040491         0.151321         0.414796
 C         1.391967        -0.160394        -0.172310
 C         1.684437        -1.463292        -0.815822
 C         3.068103        -1.013658        -1.211015
 C         3.507282        -0.176399         0.199845
 C         3.828921         0.978877        -0.749523
 C         2.932326         0.424111        -1.772796
 O         1.624619         0.847994        -1.344873
 O         2.346342        -0.016147         0.944996
 H        -0.275724        -0.667373         1.001081
 H         0.113118         1.044990         0.971312
 H        -0.755703         0.316317        -0.241946
 H         1.956073        -2.136150        -0.073163
 H         0.909244        -1.724021        -1.511091
 H         3.815107        -1.756478        -1.524291
 H         4.225534        -0.673567         0.841773
 H         3.688247         2.063481        -0.394959
 H         4.914400         0.859525        -1.022392
 H         3.038813         0.735755        -2.831927
