19
Iteration:  4533charge 0 multiplicity 1
 C        -0.176387         0.184961         0.208072
 C         1.355976        -0.109953        -0.214999
 C         1.807860        -1.469951        -0.754831
 C         3.162320        -1.032769        -0.984447
 C         3.610257        -0.175708         0.223186
 C         3.952481         0.916515        -0.746122
 C         2.939454         0.388611        -1.665856
 O         1.553917         0.717873        -1.316483
 O         2.261497         0.140166         0.835198
 H        -0.184084        -0.080643         1.304924
 H        -0.429773         1.328570         0.120044
 H        -0.911145        -0.359796        -0.462544
 H         1.774643        -2.179871         0.025408
 H         1.279281        -1.748089        -1.576174
 H         3.888206        -1.696586        -1.367367
 H         4.326372        -0.584676         0.964356
 H         3.919871         2.021256        -0.512683
 H         4.993627         0.857258        -1.224437
 H         3.076620         0.552383        -2.812431
