19
Iteration:   897
 C         0.027219         0.161392         0.456480
 C         1.388987        -0.079326        -0.134500
 C         1.673464        -1.456209        -0.763981
 C         3.086992        -1.022638        -1.213290
 C         3.553171        -0.210838         0.154860
 C         3.978224         0.988908        -0.688929
 C         2.926435         0.479534        -1.761124
 O         1.541884         0.704177        -1.332011
 O         2.319905         0.041914         0.802067
 H        -0.347344        -0.783188         1.026675
 H        -0.150526         0.997119         1.153307
 H        -0.721585         0.387542        -0.408249
 H         1.746483        -2.368918        -0.176525
 H         0.921285        -1.562365        -1.611918
 H         3.905858        -1.727201        -1.458568
 H         4.235708        -0.735247         0.887607
 H         3.750568         1.994253        -0.170956
 H         4.954338         0.985158        -1.005243
 H         2.910866         0.803570        -2.820110
