19
Iteration:  4844charge 0 multiplicity 1
 C        -0.079814         0.188880         0.305273
 C         1.269237        -0.122216        -0.279061
 C         1.783240        -1.600520        -0.801936
 C         3.159735        -1.077948        -1.016571
 C         3.589855        -0.148558         0.257664
 C         3.964107         0.930325        -0.733204
 C         2.943173         0.327255        -1.682150
 O         1.561499         0.748551        -1.354940
 O         2.251032         0.296252         0.843217
 H        -0.392050        -0.728423         0.863101
 H        -0.087152         0.987965         1.119205
 H        -0.776497         0.333335        -0.527222
 H         1.596313        -2.254794        -0.019357
 H         1.379918        -1.964392        -1.635667
 H         4.072134        -1.611335        -1.328984
 H         4.244946        -0.341705         1.100254
 H         3.953465         2.013506        -0.665343
 H         4.993890         0.664309        -1.040791
 H         3.061649         0.483441        -2.744339
