19
Iteration:  2647
 C        -0.170041         0.131831         0.257957
 C         1.281872        -0.061887        -0.204751
 C         1.750643        -1.527712        -0.787012
 C         3.129386        -1.037775        -1.036853
 C         3.652231        -0.199319         0.265149
 C         3.986450         0.916634        -0.747468
 C         2.889210         0.360952        -1.682720
 O         1.536414         0.770383        -1.338126
 O         2.385949         0.224518         0.860366
 H        -0.490912        -0.498453         1.079793
 H        -0.145998         1.124998         0.674791
 H        -0.705170        -0.110944        -0.643132
 H         1.732287        -2.320744         0.020400
 H         1.231359        -1.815013        -1.704701
 H         3.817867        -1.615455        -1.537010
 H         4.418335        -0.571786         0.971137
 H         3.820939         1.972989        -0.405436
 H         4.951937         0.839335        -1.269495
 H         2.980770         0.350213        -2.774858
