19
Iteration:  2735
 C        -0.084003         0.156282         0.276816
 C         1.350509        -0.123756        -0.131630
 C         1.722282        -1.605909        -0.768895
 C         3.113109        -1.014031        -1.086496
 C         3.630273        -0.176676         0.228484
 C         3.986551         0.944349        -0.699357
 C         2.883046         0.402137        -1.719519
 O         1.577088         0.789258        -1.369493
 O         2.303378         0.201547         0.857721
 H        -0.455312        -0.168686         1.250503
 H        -0.285243         1.246638         0.343841
 H        -0.811778        -0.238900        -0.407473
 H         1.700415        -2.540925        -0.289984
 H         1.084332        -1.750468        -1.596539
 H         3.943320        -1.577772        -1.551986
 H         4.204789        -0.584315         1.058723
 H         3.910242         2.008304        -0.435710
 H         5.035255         0.774477        -1.030884
 H         2.973110         0.255701        -2.807388
