19
Iteration:  4252charge 0 multiplicity 1
 C        -0.093116         0.134236         0.302836
 C         1.297235        -0.091780        -0.226203
 C         1.740392        -1.589010        -0.827520
 C         3.158242        -1.083278        -0.923172
 C         3.549285        -0.166994         0.267610
 C         3.972456         0.970341        -0.766162
 C         2.967089         0.427496        -1.691370
 O         1.586547         0.733234        -1.331836
 O         2.286370         0.241321         0.799406
 H        -0.451366        -0.584397         1.017042
 H        -0.092390         1.099801         0.820253
 H        -0.821992         0.274089        -0.442688
 H         1.662704        -2.574888        -0.308214
 H         1.263244        -1.984454        -1.762221
 H         3.810658        -1.674924        -1.560763
 H         4.160152        -0.565259         1.086524
 H         3.918315         2.046433        -0.510959
 H         4.970228         0.837268        -1.157874
 H         3.120759         0.586514        -2.756390
