19
Iteration:  2606
 C        -0.114459         0.139562         0.303339
 C         1.246278        -0.110697        -0.261526
 C         1.746534        -1.539108        -0.747344
 C         3.119746        -1.026760        -1.055297
 C         3.573023        -0.123843         0.279020
 C         3.948121         0.996714        -0.816642
 C         2.996213         0.301496        -1.766969
 O         1.627499         0.817799        -1.335732
 O         2.313520         0.120390         0.901552
 H        -0.291487        -0.756391         0.892175
 H        -0.100760         1.051465         0.998572
 H        -0.914195         0.431946        -0.348791
 H         1.798247        -2.250108         0.273732
 H         1.057588        -1.920059        -1.539606
 H         3.820548        -1.674577        -1.597871
 H         4.195952        -0.507746         1.093918
 H         3.728158         2.061024        -0.644915
 H         5.011438         0.797280        -1.057793
 H         3.060959         0.371420        -2.803908
