19
Iteration:  4143charge 0 multiplicity 1
 C        -0.068573         0.129979         0.349526
 C         1.306666        -0.141860        -0.242551
 C         1.727796        -1.492528        -0.685203
 C         3.121616        -1.032830        -1.132348
 C         3.508623        -0.130288         0.242632
 C         3.953873         0.960511        -0.667925
 C         2.979664         0.336952        -1.716202
 O         1.651821         0.809592        -1.370279
 O         2.274535         0.148405         0.770313
 H        -0.172383        -0.274963         1.395204
 H        -0.196535         1.241379         0.420739
 H        -0.789134        -0.364577        -0.310729
 H         1.872533        -2.311544         0.072987
 H         1.131755        -1.951363        -1.672713
 H         3.818506        -1.845896        -1.396137
 H         4.089781        -0.542569         1.089245
 H         3.553076         1.972746        -0.398064
 H         5.032177         0.963926        -1.043997
 H         3.090102         0.491215        -2.801714
