19
Iteration:   187charge 0 multiplicity 1
 C        -0.115325         0.035649         0.433397
 C         1.329050        -0.081426        -0.190348
 C         1.615136        -1.407263        -0.770181
 C         3.065777        -1.001778        -1.173720
 C         3.618607        -0.208130         0.184269
 C         3.954440         0.958293        -0.769146
 C         2.975166         0.443603        -1.800050
 O         1.635740         0.881028        -1.294337
 O         2.384261        -0.023520         0.883068
 H        -0.355126        -0.667521         1.254723
 H        -0.274944         1.010791         0.815424
 H        -0.795424        -0.139480        -0.322930
 H         1.593696        -2.123618         0.024851
 H         0.939857        -1.668489        -1.546021
 H         3.766100        -1.763731        -1.630634
 H         4.380400        -0.485263         0.933420
 H         3.718320         2.057783        -0.403824
 H         5.014758         0.903954        -1.084337
 H         2.990263         0.550027        -2.896220
