19
Iteration:   471
 C        -0.049536         0.124788         0.504358
 C         1.266253        -0.150608        -0.208209
 C         1.710479        -1.488330        -0.740488
 C         3.067714        -0.936622        -1.268004
 C         3.492847        -0.163482         0.124866
 C         4.004508         1.002681        -0.771391
 C         3.021388         0.434325        -1.813863
 O         1.683796         0.814416        -1.241870
 O         2.241880        -0.028275         0.860279
 H        -0.134119        -0.639248         1.282997
 H         0.017502         1.132576         0.990926
 H        -0.944842         0.090929        -0.238423
 H         1.847219        -2.201548         0.104499
 H         1.009466        -1.905667        -1.434165
 H         3.898353        -1.631021        -1.493409
 H         4.156500        -0.663585         0.896824
 H         3.780006         2.057091        -0.376632
 H         5.008908         0.844921        -1.055548
 H         2.992453         0.724203        -2.967585
