19
Iteration:  4918
 C        -0.133806         0.198328         0.313950
 C         1.295262        -0.080158        -0.208935
 C         1.713663        -1.558439        -0.719882
 C         3.148581        -1.043247        -1.006467
 C         3.550550        -0.168989         0.169257
 C         3.967184         1.015570        -0.671747
 C         3.040385         0.360509        -1.722312
 O         1.603901         0.688658        -1.369555
 O         2.286562         0.198881         0.794576
 H        -0.381830        -0.092388         1.332623
 H        -0.349714         1.281104         0.211512
 H        -0.710498        -0.398396        -0.364846
 H         1.734507        -2.459966        -0.012982
 H         1.106926        -1.932536        -1.621100
 H         3.854131        -1.761940        -1.377628
 H         4.071143        -0.717421         0.972508
 H         3.876051         2.018805        -0.289217
 H         4.989348         0.886589        -1.080067
 H         3.188075         0.557092        -2.883322
