19
Iteration:  4383charge 0 multiplicity 1
 C        -0.055714         0.115068         0.348591
 C         1.339208        -0.085955        -0.185036
 C         1.715266        -1.534876        -0.799197
 C         3.066130        -1.096383        -1.059718
 C         3.573052        -0.141989         0.277315
 C         3.940678         0.982436        -0.681015
 C         2.972127         0.341753        -1.793650
 O         1.644000         0.745213        -1.404023
 O         2.252394         0.250899         0.847141
 H        -0.260424        -0.568107         1.119884
 H        -0.094494         1.155855         0.646614
 H        -0.651943        -0.051955        -0.522361
 H         1.520612        -2.299421         0.107868
 H         1.266247        -1.746993        -1.817285
 H         3.824581        -1.806748        -1.262067
 H         4.263951        -0.636049         0.952544
 H         3.574173         1.970744        -0.435400
 H         4.985042         0.862820        -0.812937
 H         3.226506         0.487574        -2.821671
