19
Iteration:  2425charge 0 multiplicity 1
 C        -0.084477         0.238865         0.292009
 C         1.337488        -0.159132        -0.161572
 C         1.746050        -1.531924        -0.876233
 C         3.128850        -1.046993        -0.984875
 C         3.526061        -0.124177         0.187928
 C         3.920556         0.976896        -0.785161
 C         2.956316         0.334006        -1.722594
 O         1.604953         0.660550        -1.265419
 O         2.338294         0.203871         0.893636
 H        -0.396983        -0.529821         0.952110
 H         0.005719         1.195768         0.732684
 H        -0.758562         0.270459        -0.518259
 H         1.355417        -2.442201        -0.352199
 H         1.216147        -1.566207        -1.831885
 H         3.989458        -1.609605        -1.398743
 H         4.159996        -0.576865         0.947885
 H         3.695341         2.001494        -0.564647
 H         5.002984         0.941917        -1.042736
 H         2.878167         0.492348        -2.826957
