19
Iteration:  2067charge 0 multiplicity 1
 C        -0.103520         0.226555         0.274129
 C         1.335113        -0.103305        -0.180257
 C         1.753554        -1.508713        -0.785169
 C         3.169026        -1.037957        -1.123754
 C         3.597748        -0.233400         0.256031
 C         3.919726         0.931869        -0.741993
 C         2.903174         0.347062        -1.670318
 O         1.575059         0.774445        -1.239558
 O         2.366451         0.123691         0.807985
 H        -0.680014        -0.213582         1.097165
 H        -0.308180         1.299299         0.554022
 H        -0.826415         0.044897        -0.680743
 H         1.712648        -2.447433        -0.170166
 H         1.154501        -1.654740        -1.745809
 H         3.868054        -1.649406        -1.707170
 H         4.323069        -0.557187         1.022375
 H         3.626584         1.901413        -0.414187
 H         4.922341         1.101195        -1.120833
 H         2.858664         0.597332        -2.731695
