19
Iteration:  2160charge 0 multiplicity 1
 C        -0.091000         0.192190         0.300193
 C         1.264138        -0.086459        -0.259884
 C         1.777911        -1.444796        -0.670085
 C         3.110361        -1.027835        -1.120404
 C         3.562078        -0.170413         0.201750
 C         3.976542         0.985337        -0.727602
 C         2.940805         0.391302        -1.740392
 O         1.615386         0.753529        -1.345586
 O         2.285294         0.006186         0.886516
 H        -0.288534        -0.445930         1.209397
 H        -0.060916         1.255525         0.660151
 H        -0.787262         0.037222        -0.467853
 H         1.560498        -2.154801         0.197144
 H         1.205752        -1.851304        -1.599590
 H         3.818971        -1.700706        -1.586209
 H         4.230407        -0.597629         0.977504
 H         3.932214         2.095460        -0.360636
 H         5.045475         0.922687        -1.093644
 H         3.047738         0.470115        -2.859509
