19
Iteration:   783
 C        -0.001738         0.136486         0.463832
 C         1.284017        -0.111735        -0.198467
 C         1.691481        -1.526070        -0.859997
 C         3.051568        -1.001270        -1.173883
 C         3.541717        -0.215533         0.123095
 C         4.055866         1.015131        -0.718148
 C         2.969145         0.488608        -1.735263
 O         1.527241         0.765189        -1.272373
 O         2.328955         0.064702         0.890168
 H        -0.035160        -0.347018         1.454368
 H        -0.167697         1.267543         0.533659
 H        -0.758062        -0.275895        -0.247202
 H         1.721796        -2.315432        -0.050903
 H         1.104822        -1.886079        -1.727601
 H         3.832050        -1.710794        -1.477804
 H         4.241806        -0.804373         0.722258
 H         3.976503         1.999672        -0.434568
 H         5.041157         0.682975        -1.102951
 H         2.842881         0.946086        -2.830630
