19
Iteration:  1513charge 0 multiplicity 1
 C         0.009108         0.164990         0.332784
 C         1.231900        -0.113795        -0.215893
 C         1.757002        -1.541790        -0.708663
 C         3.097144        -0.989746        -1.133554
 C         3.576099        -0.199489         0.188169
 C         3.960519         1.014461        -0.731459
 C         2.905027         0.419298        -1.677812
 O         1.564476         0.865986        -1.325069
 O         2.353465        -0.049219         0.833977
 H        -0.487145        -0.355990         1.123664
 H         0.138922         1.232017         0.434061
 H        -0.754354         0.131234        -0.529270
 H         1.728850        -2.128370         0.206413
 H         1.033008        -1.902786        -1.482287
 H         3.724268        -1.736449        -1.616197
 H         4.239910        -0.756689         0.892774
 H         4.050807         2.029302        -0.415950
 H         4.967329         0.995909        -1.112109
 H         2.836839         0.634440        -2.750103
