19
Iteration:  3634
 C        -0.138693         0.182843         0.304054
 C         1.354463        -0.150259        -0.242299
 C         1.738257        -1.539992        -0.708700
 C         3.120724        -1.016525        -1.075497
 C         3.557053        -0.135775         0.230868
 C         3.906372         1.040994        -0.739279
 C         3.023533         0.366888        -1.740609
 O         1.661549         0.731672        -1.335850
 O         2.266201         0.098935         0.833659
 H        -0.546599        -0.617892         0.881572
 H        -0.287414         1.109824         0.801166
 H        -0.877734         0.316073        -0.493900
 H         1.761850        -2.133116         0.288713
 H         1.049518        -2.033796        -1.456791
 H         3.811055        -1.696688        -1.532215
 H         4.414874        -0.385169         0.948105
 H         3.757385         2.102277        -0.411493
 H         5.049648         1.017661        -0.936798
 H         2.893335         0.312310        -2.862878
