19
Iteration:   285
 C        -0.025217         0.100314         0.405383
 C         1.349008        -0.069485        -0.074978
 C         1.654337        -1.479359        -0.970083
 C         3.110368        -1.040727        -1.139372
 C         3.547307        -0.224324         0.176090
 C         3.986140         0.959273        -0.816965
 C         2.854030         0.423632        -1.745195
 O         1.600550         0.756662        -1.223608
 O         2.369309         0.173361         0.946712
 H        -0.347084        -0.687183         1.110022
 H        -0.273758         1.009408         0.889041
 H        -0.534400        -0.042618        -0.467124
 H         1.537263        -2.399205        -0.455168
 H         0.988159        -1.490761        -1.779172
 H         3.960550        -1.676005        -1.530473
 H         4.229744        -0.767555         0.867519
 H         4.059130         2.063582        -0.441099
 H         4.846628         0.638426        -1.355221
 H         2.912899         0.704936        -2.881397
