19
Iteration:  4990
 C        -0.062414         0.137063         0.149487
 C         1.367539        -0.044204        -0.163717
 C         1.725439        -1.441131        -0.660991
 C         3.099693        -1.048199        -1.020421
 C         3.547798        -0.218900         0.234002
 C         3.897614         1.058587        -0.747821
 C         2.994274         0.325863        -1.703971
 O         1.596207         0.683303        -1.362143
 O         2.321221         0.161842         0.840045
 H        -0.512285        -0.602428         0.894880
 H        -0.145781         1.135492         0.596908
 H        -0.716834        -0.123615        -0.738999
 H         1.632194        -2.145356         0.168350
 H         1.032299        -1.769054        -1.494456
 H         3.714097        -1.885212        -1.282292
 H         4.424507        -0.472369         0.851174
 H         3.594433         2.043651        -0.383812
 H         4.972460         1.003025        -1.030302
 H         3.096539         0.327525        -2.731494
