19
Iteration:  3785charge 0 multiplicity 1
 C        -0.128425         0.149160         0.271750
 C         1.302905        -0.129611        -0.234340
 C         1.737283        -1.484919        -0.712199
 C         3.200647        -1.108824        -0.961997
 C         3.523148        -0.164447         0.152112
 C         3.946696         0.972387        -0.721942
 C         2.982781         0.419204        -1.788529
 O         1.627098         0.802731        -1.391261
 O         2.317040         0.115690         0.880381
 H        -0.421364        -0.657981         1.015760
 H        -0.148690         1.021630         0.928881
 H        -0.937996         0.006102        -0.492983
 H         1.615027        -2.261722         0.142196
 H         0.898230        -1.740490        -1.432512
 H         3.991495        -1.604762        -1.485329
 H         4.159545        -0.595888         0.997783
 H         3.539259         1.860645        -0.283607
 H         4.991044         1.144930        -0.880459
 H         3.039608         0.559858        -2.864129
