19
Iteration:  3011charge 0 multiplicity 1
 C        -0.094521         0.088335         0.272048
 C         1.282945        -0.076958        -0.197076
 C         1.696482        -1.462412        -0.729153
 C         3.230248        -1.011160        -0.950325
 C         3.553854        -0.242028         0.209258
 C         3.991345         0.965063        -0.766457
 C         2.934672         0.379683        -1.720969
 O         1.585140         0.730192        -1.352597
 O         2.316435         0.180823         0.806963
 H        -0.635729        -0.640830         0.909679
 H        -0.105434         0.875920         0.993649
 H        -0.793730         0.408407        -0.541878
 H         1.421317        -2.164191         0.031101
 H         1.261261        -1.746812        -1.649135
 H         3.850847        -1.677040        -1.451220
 H         4.213069        -0.582678         0.979751
 H         3.822069         2.009923        -0.475786
 H         4.973572         0.847930        -1.185033
 H         3.037152         0.667321        -2.754071
