19
Iteration:  3347charge 0 multiplicity 1
 C        -0.138204         0.204732         0.367733
 C         1.320814        -0.125550        -0.243730
 C         1.813123        -1.480478        -0.744123
 C         3.160403        -1.009601        -1.040562
 C         3.532553        -0.203303         0.250405
 C         3.935617         0.965090        -0.721129
 C         2.972978         0.342204        -1.768236
 O         1.604393         0.769100        -1.345495
 O         2.227801         0.115856         0.792512
 H        -0.053382        -0.296724         1.354567
 H        -0.234097         1.307026         0.304862
 H        -0.765898        -0.268557        -0.355307
 H         1.863531        -2.142731         0.163030
 H         1.108422        -1.807910        -1.594391
 H         3.990460        -1.791814        -1.316236
 H         4.296922        -0.594009         0.964720
 H         3.630787         2.052229        -0.475384
 H         5.050345         0.969205        -0.998642
 H         3.231692         0.358428        -2.871327
