19
Iteration:  4060charge 0 multiplicity 1
 C        -0.054200         0.130466         0.350305
 C         1.297865        -0.100878        -0.207851
 C         1.693737        -1.457051        -0.736535
 C         3.184819        -1.018147        -1.053561
 C         3.556351        -0.179648         0.255415
 C         3.941300         0.993833        -0.725411
 C         3.000732         0.348338        -1.732341
 O         1.589136         0.790469        -1.385393
 O         2.271446         0.091110         0.802402
 H        -0.325377        -0.694010         1.008038
 H        -0.233337         1.201211         0.618016
 H        -0.852020         0.200184        -0.433392
 H         1.568725        -2.162438         0.142928
 H         1.198787        -1.973961        -1.536675
 H         4.020676        -1.700959        -1.500129
 H         4.261211        -0.433753         1.079841
 H         3.693574         2.038868        -0.483972
 H         4.965095         0.923527        -1.005207
 H         3.092959         0.156262        -2.829018
