19
Iteration:  4582
 C        -0.154396         0.140090         0.333882
 C         1.304158        -0.072511        -0.263796
 C         1.736751        -1.466340        -0.675341
 C         3.233717        -1.024798        -1.050857
 C         3.466734        -0.211870         0.254071
 C         3.980939         0.993102        -0.767087
 C         3.040969         0.405593        -1.788088
 O         1.610224         0.714578        -1.366908
 O         2.242935         0.136364         0.850522
 H        -0.251981        -0.449186         1.219028
 H        -0.220907         1.147294         0.624769
 H        -0.846173        -0.021746        -0.461400
 H         1.656725        -2.308235         0.114286
 H         1.379267        -1.955099        -1.683277
 H         3.990947        -1.818387        -1.290640
 H         4.074128        -0.550325         1.099198
 H         3.871827         2.024655        -0.463073
 H         5.013872         0.958718        -1.048996
 H         2.980213         0.461212        -2.828866
