19
Iteration:  3978
 C        -0.067098         0.111089         0.220334
 C         1.355387        -0.095313        -0.166455
 C         1.755705        -1.453836        -0.748453
 C         3.065983        -1.018634        -1.114997
 C         3.554458        -0.128741         0.257364
 C         3.990430         0.987992        -0.718170
 C         2.948014         0.363057        -1.735943
 O         1.610722         0.726687        -1.313185
 O         2.267696         0.102024         0.855185
 H        -0.442016        -0.476644         1.081764
 H        -0.167766         1.065672         0.731572
 H        -0.774895        -0.037285        -0.633510
 H         1.807320        -2.162899         0.092270
 H         1.009971        -1.639858        -1.572973
 H         3.786852        -1.711355        -1.479610
 H         4.270170        -0.501822         0.995466
 H         3.696841         2.022082        -0.450464
 H         5.115222         0.913909        -0.983215
 H         3.016695         0.341986        -2.841908
