19
Iteration:  1545
 C        -0.150164         0.219262         0.417565
 C         1.324249        -0.138881        -0.147143
 C         1.748601        -1.504999        -0.841926
 C         3.113855        -1.008949        -1.170545
 C         3.561274        -0.242632         0.135017
 C         3.965116         0.987455        -0.665764
 C         2.940513         0.369646        -1.764859
 O         1.598276         0.729318        -1.345014
 O         2.361903         0.144423         0.924336
 H        -0.288803        -0.385547         1.364423
 H        -0.089339         1.313166         0.612689
 H        -0.806646        -0.015141        -0.547380
 H         1.649707        -2.385582        -0.227275
 H         1.193917        -1.538306        -1.804458
 H         3.909326        -1.677871        -1.536602
 H         4.173361        -0.770479         0.874320
 H         3.604412         1.914506        -0.209178
 H         4.966104         0.933651        -1.017524
 H         2.893403         0.720053        -2.788670
