19
Iteration:  1267charge 0 multiplicity 1
 C        -0.050241         0.202805         0.380624
 C         1.309713        -0.127320        -0.200682
 C         1.698743        -1.480090        -0.792846
 C         3.109176        -0.997920        -1.146877
 C         3.590093        -0.172088         0.226863
 C         4.014112         1.003584        -0.724140
 C         2.950243         0.427297        -1.752432
 O         1.508354         0.722638        -1.291030
 O         2.348512         0.006848         0.838039
 H        -0.565736        -0.504147         1.179221
 H        -0.105220         1.207930         0.978081
 H        -0.870907         0.262242        -0.448109
 H         1.647956        -2.329423        -0.122509
 H         1.052798        -1.676001        -1.658249
 H         3.745394        -1.734665        -1.594834
 H         4.383722        -0.553239         0.912165
 H         3.985418         2.059430        -0.382459
 H         5.009084         0.865908        -1.149075
 H         3.152049         0.710562        -2.816578
