19
Iteration:  2791charge 0 multiplicity 1
 C        -0.078129         0.130951         0.335302
 C         1.367632        -0.101156        -0.159103
 C         1.707221        -1.425606        -0.774219
 C         3.152790        -1.019586        -1.034434
 C         3.555014        -0.199482         0.204303
 C         3.950222         0.940935        -0.756374
 C         2.937113         0.320740        -1.733472
 O         1.605922         0.748629        -1.331559
 O         2.282758         0.192733         0.809540
 H        -0.498629        -0.776963         0.800907
 H        -0.213828         1.039383         1.005878
 H        -0.737779         0.349274        -0.520893
 H         1.784764        -2.244388         0.022020
 H         1.224479        -1.556316        -1.737299
 H         3.926798        -1.881076        -1.317248
 H         4.193301        -0.574726         1.017788
 H         3.561750         1.941821        -0.557740
 H         5.059202         0.834984        -0.989484
 H         2.986703         0.309485        -2.820809
