19
Iteration:  4005charge 0 multiplicity 1
 C        -0.117307         0.211614         0.246127
 C         1.280657        -0.107767        -0.217914
 C         1.804577        -1.641147        -0.726931
 C         3.126437        -1.069751        -1.017187
 C         3.592693        -0.161167         0.233783
 C         3.996941         0.985171        -0.738226
 C         2.911707         0.487085        -1.717511
 O         1.584940         0.797647        -1.344763
 O         2.262430         0.092578         0.812943
 H        -0.398934        -0.574858         0.987959
 H        -0.119457         1.052871         0.999050
 H        -0.966271         0.313470        -0.411622
 H         1.841594        -2.313988         0.144045
 H         1.374063        -1.943692        -1.646470
 H         3.924466        -1.730317        -1.498485
 H         4.312962        -0.385137         1.045773
 H         3.921968         2.028094        -0.416695
 H         4.955928         0.756737        -1.114788
 H         3.050378         0.367903        -2.793409
