19
Iteration:  3183charge 0 multiplicity 1
 C        -0.079836         0.124244         0.269733
 C         1.327397        -0.095860        -0.186643
 C         1.698395        -1.521032        -0.713190
 C         3.185432        -1.043346        -0.937441
 C         3.575661        -0.132100         0.141777
 C         3.987946         0.970781        -0.737472
 C         2.931269         0.346775        -1.802313
 O         1.589470         0.787143        -1.323325
 O         2.267950         0.135952         0.832293
 H        -0.390885        -0.630702         0.978832
 H        -0.262802         1.068690         0.659328
 H        -0.808836         0.031900        -0.521461
 H         1.617942        -2.291588         0.006063
 H         1.111837        -1.729383        -1.572618
 H         3.997535        -1.643047        -1.205835
 H         4.065704        -0.612551         0.978957
 H         3.916203         2.003002        -0.363503
 H         4.979766         0.819201        -1.176650
 H         3.146573         0.684135        -2.805256
