19
Iteration:  1315charge 0 multiplicity 1
 C        -0.054553         0.092449         0.314609
 C         1.347514        -0.144678        -0.148184
 C         1.631317        -1.411136        -0.763421
 C         3.055453        -0.993559        -1.139645
 C         3.597420        -0.167596         0.150148
 C         3.997119         0.980277        -0.757987
 C         2.933427         0.435494        -1.734477
 O         1.622098         0.701387        -1.269945
 O         2.337000         0.110963         0.875746
 H        -0.455393        -0.623717         0.984093
 H        -0.178972         1.014505         0.849051
 H        -0.745201         0.133823        -0.447131
 H         1.576105        -2.281265        -0.100884
 H         1.055967        -1.630163        -1.647675
 H         3.751817        -1.711445        -1.651277
 H         4.237796        -0.587441         0.907739
 H         3.869272         1.966174        -0.192082
 H         5.090014         0.861078        -1.141082
 H         2.970516         0.626438        -2.768548
