19
Iteration:  2471charge 0 multiplicity 1
 C        -0.043910         0.160140         0.320278
 C         1.233350        -0.085977        -0.365439
 C         1.687822        -1.516112        -0.663415
 C         3.098241        -1.017383        -0.996200
 C         3.609556        -0.225189         0.185807
 C         3.977956         0.990742        -0.688453
 C         2.930859         0.429372        -1.731013
 O         1.590447         0.803584        -1.368856
 O         2.328367         0.108692         0.818197
 H         0.115760        -0.507488         1.134989
 H        -0.151096         1.187728         0.338089
 H        -0.826723        -0.323676        -0.314970
 H         1.568509        -2.232567         0.220108
 H         1.241284        -2.274119        -1.311372
 H         3.819188        -1.831959        -1.201001
 H         4.264435        -0.649195         1.022256
 H         4.049953         1.992489        -0.207390
 H         4.971654         0.889574        -1.238808
 H         2.923102         0.594286        -2.840628
