19
Iteration:  2806charge 0 multiplicity 1
 C        -0.056083         0.168694         0.308285
 C         1.258645        -0.102207        -0.240552
 C         1.735610        -1.509130        -0.792717
 C         3.157484        -1.099135        -1.032548
 C         3.541323        -0.139801         0.240552
 C         3.909006         0.973985        -0.753623
 C         2.964659         0.367462        -1.802655
 O         1.637433         0.667623        -1.325595
 O         2.303444         0.235874         0.926545
 H        -0.390245        -0.646369         0.955057
 H         0.184451         0.895151         1.043330
 H        -0.853328         0.476596        -0.387499
 H         1.344461        -2.418082        -0.237021
 H         1.055271        -1.698486        -1.707307
 H         3.881042        -1.702321        -1.467972
 H         4.300472        -0.528405         0.921077
 H         4.009917         1.944489        -0.246528
 H         4.868083         0.847558        -1.254437
 H         3.025903         0.716639        -2.817423
