19
Iteration:  1092
 C        -0.079328         0.135882         0.309741
 C         1.313544        -0.069011        -0.173270
 C         1.669415        -1.476251        -0.777092
 C         3.076940        -1.027128        -1.131901
 C         3.659077        -0.135325         0.201737
 C         3.998401         0.948447        -0.739577
 C         2.873579         0.443460        -1.694253
 O         1.526591         0.757651        -1.287017
 O         2.412281         0.052664         0.852415
 H        -0.111413        -0.789398         0.913800
 H        -0.263099         0.864544         1.089630
 H        -0.846816         0.153095        -0.532124
 H         1.540659        -2.266006        -0.042397
 H         0.949073        -1.703121        -1.603155
 H         3.697750        -1.681754        -1.750165
 H         4.420214        -0.598548         0.863902
 H         3.980748         2.079968        -0.318337
 H         5.054106         0.704521        -1.273059
 H         3.024920         0.693541        -2.800426
