19
Iteration:  4443
 C        -0.064147         0.175533         0.197215
 C         1.332497        -0.110132        -0.216303
 C         1.781613        -1.553658        -0.671859
 C         3.127730        -1.017206        -1.098942
 C         3.542061        -0.099560         0.263730
 C         3.953690         0.956157        -0.748553
 C         2.931134         0.373269        -1.726099
 O         1.645916         0.720141        -1.277055
 O         2.216350         0.150041         0.819911
 H        -0.511150        -0.614366         0.895579
 H        -0.002501         1.061437         0.886421
 H        -0.800987         0.422088        -0.605492
 H         1.647298        -2.194474         0.124288
 H         1.057274        -1.976058        -1.406356
 H         3.986060        -1.679805        -1.444545
 H         4.172724        -0.628663         1.018351
 H         3.996855         2.063091        -0.710262
 H         5.056936         0.744883        -1.030131
 H         2.952025         0.448436        -2.867711
