19
Iteration:  2137
 C        -0.038495         0.123842         0.339990
 C         1.329836        -0.130830        -0.141870
 C         1.646040        -1.512630        -0.870076
 C         3.092520        -1.057092        -1.029382
 C         3.525234        -0.152228         0.229271
 C         3.957051         0.950252        -0.751303
 C         2.991621         0.380848        -1.742686
 O         1.647132         0.752284        -1.315629
 O         2.325657         0.199341         0.850527
 H        -0.213343        -0.432147         1.299433
 H        -0.300328         1.150893         0.596628
 H        -0.674771        -0.296843        -0.395053
 H         1.277914        -2.533581        -0.424961
 H         0.983761        -1.391588        -1.856204
 H         3.910878        -1.708443        -1.349769
 H         4.111491        -0.570172         1.062207
 H         3.811037         2.056644        -0.440840
 H         5.028934         0.986561        -1.096553
 H         3.065391         0.549104        -2.822576
