19
Iteration:  1269
 C        -0.065049         0.210000         0.374719
 C         1.291325        -0.134397        -0.218980
 C         1.710864        -1.466769        -0.783045
 C         3.114744        -0.978738        -1.129724
 C         3.608327        -0.188569         0.224180
 C         4.011274         0.988046        -0.733307
 C         2.930132         0.430037        -1.760056
 O         1.524235         0.725327        -1.285956
 O         2.334990         0.000550         0.843536
 H        -0.548711        -0.487604         1.161709
 H        -0.064917         1.173138         0.999753
 H        -0.810785         0.243719        -0.396742
 H         1.644809        -2.302816        -0.100121
 H         1.110069        -1.709732        -1.641133
 H         3.737137        -1.734558        -1.637385
 H         4.414637        -0.573101         0.870969
 H         3.981151         2.100782        -0.431292
 H         5.067791         0.935038        -1.117384
 H         3.106927         0.681180        -2.779257
