19
Iteration:  4340
 C        -0.094931         0.156563         0.235488
 C         1.304728        -0.149927        -0.159079
 C         1.680191        -1.587910        -0.736694
 C         3.143421        -1.018780        -1.017778
 C         3.498841        -0.133006         0.207681
 C         4.032562         0.970382        -0.734139
 C         2.950752         0.451189        -1.758186
 O         1.633983         0.742548        -1.366163
 O         2.284325         0.139241         0.887643
 H        -0.170197        -0.127239         1.247305
 H        -0.158569         1.228006         0.150445
 H        -0.874653        -0.200416        -0.402432
 H         1.780087        -2.418859         0.141870
 H         0.953443        -1.822758        -1.632142
 H         3.867818        -1.645170        -1.476098
 H         4.185395        -0.423243         1.003400
 H         4.097921         2.015144        -0.385666
 H         5.021781         0.713246        -1.063373
 H         3.022623         0.571347        -2.837899
