19
Iteration:  1614
 C        -0.110318         0.118786         0.301341
 C         1.286529        -0.114155        -0.095113
 C         1.692712        -1.443228        -0.763341
 C         3.096492        -1.028990        -1.133071
 C         3.604362        -0.181212         0.151777
 C         4.036376         0.956725        -0.709523
 C         2.894683         0.485086        -1.708343
 O         1.584003         0.707934        -1.320563
 O         2.370496         0.120323         0.861341
 H        -0.373940        -0.623022         1.035675
 H        -0.265345         1.137359         0.699977
 H        -0.758287        -0.050517        -0.695592
 H         1.659271        -2.260421         0.046291
 H         0.973535        -1.484449        -1.617724
 H         3.715063        -1.758403        -1.636074
 H         4.305052        -0.735318         0.855979
 H         4.038937         1.956630        -0.246247
 H         5.048230         0.700861        -1.195039
 H         2.984147         0.611802        -2.884836
