19
Iteration:  4244
 C        -0.073153         0.162525         0.281146
 C         1.322967        -0.155840        -0.214049
 C         1.721611        -1.524977        -0.769417
 C         3.132911        -1.075557        -0.908061
 C         3.550434        -0.197080         0.224443
 C         4.028959         1.031913        -0.789750
 C         2.942273         0.436720        -1.683798
 O         1.585453         0.707794        -1.328748
 O         2.259302         0.182030         0.771612
 H        -0.350425        -0.737811         0.849015
 H        -0.187881         1.075649         0.917619
 H        -0.794966         0.227961        -0.603478
 H         1.649382        -2.202382        -0.027647
 H         1.263955        -1.580716        -1.788419
 H         3.918367        -1.671958        -1.388380
 H         4.128349        -0.543641         1.072099
 H         3.886590         2.027768        -0.269148
 H         5.051685         0.892724        -1.246509
 H         3.012149         0.403690        -2.751841
