19
Iteration:  2129charge 0 multiplicity 1
 C        -0.097316         0.093694         0.378588
 C         1.318219        -0.110315        -0.193148
 C         1.701036        -1.500460        -0.850548
 C         3.106760        -1.072324        -1.025944
 C         3.510445        -0.209982         0.197355
 C         4.005615         0.963796        -0.747736
 C         2.932648         0.353196        -1.732606
 O         1.650214         0.778865        -1.282993
 O         2.293207         0.239689         0.835261
 H        -0.026100        -0.453746         1.345328
 H        -0.155794         1.212036         0.452119
 H        -0.681889        -0.261684        -0.410598
 H         1.265346        -2.363163        -0.386709
 H         1.408376        -1.308059        -1.875841
 H         3.931902        -1.700947        -1.334293
 H         4.221213        -0.686106         0.901879
 H         3.663714         1.972909        -0.312247
 H         5.063774         0.915121        -1.113567
 H         3.091155         0.429271        -2.874341
