19
Iteration:  4887
 C        -0.014044         0.159392         0.170130
 C         1.356578        -0.031874        -0.252931
 C         1.674775        -1.545926        -0.679033
 C         3.110699        -1.090013        -0.991494
 C         3.585262        -0.091067         0.260807
 C         3.907423         0.997718        -0.756077
 C         2.947353         0.333769        -1.761909
 O         1.601721         0.769734        -1.362556
 O         2.312888         0.102397         0.934156
 H        -0.277058        -0.461756         1.047021
 H        -0.368685         1.186076         0.497845
 H        -0.639757        -0.068589        -0.687201
 H         1.600223        -2.279501         0.084612
 H         1.131571        -1.845424        -1.457239
 H         3.702646        -1.853543        -1.522814
 H         4.314069        -0.514350         0.975999
 H         3.689115         1.991036        -0.357302
 H         4.924837         0.936965        -1.177180
 H         3.082027         0.434243        -2.884324
