19
Iteration:  4563charge 0 multiplicity 1
 C        -0.104805         0.121096         0.222840
 C         1.368858        -0.116610        -0.186976
 C         1.707534        -1.482371        -0.745091
 C         3.070123        -1.047661        -1.016913
 C         3.589683        -0.111166         0.199186
 C         3.926113         1.019013        -0.703590
 C         2.974905         0.302723        -1.717483
 O         1.689133         0.749608        -1.342857
 O         2.253713         0.138904         0.844952
 H        -0.240025        -0.336854         1.227733
 H        -0.361528         1.189878         0.387060
 H        -0.816638        -0.355390        -0.419182
 H         1.657361        -2.196049         0.039698
 H         0.904580        -1.834351        -1.524604
 H         3.761523        -1.718135        -1.470580
 H         4.384187        -0.434431         0.880707
 H         3.622436         2.024195        -0.477266
 H         5.002709         1.117629        -0.935074
 H         3.220794         0.368378        -2.830300
