19
Iteration:  1904charge 0 multiplicity 1
 C        -0.047773         0.194293         0.402426
 C         1.326689        -0.089211        -0.141683
 C         1.790181        -1.420353        -0.827859
 C         3.100114        -0.948681        -1.127537
 C         3.560470        -0.224603         0.183607
 C         4.013562         0.931619        -0.631760
 C         2.931224         0.361334        -1.702769
 O         1.533144         0.646328        -1.382883
 O         2.294178         0.170082         0.770518
 H        -0.271978        -0.269629         1.328480
 H        -0.115277         1.275862         0.532866
 H        -0.786262        -0.140490        -0.295978
 H         1.705982        -2.248833         0.001614
 H         1.075459        -1.940448        -1.584335
 H         3.848520        -1.535480        -1.565710
 H         4.113309        -0.776822         0.946600
 H         3.592623         1.849941        -0.173603
 H         5.114764         0.768341        -0.973542
 H         2.999265         0.564454        -2.742167
