19
Iteration:  4585charge 0 multiplicity 1
 C        -0.154351         0.138315         0.321519
 C         1.327867        -0.082473        -0.265149
 C         1.758478        -1.501377        -0.696687
 C         3.216030        -1.029350        -1.021194
 C         3.480424        -0.203320         0.256107
 C         3.988919         0.987211        -0.740120
 C         3.002113         0.413091        -1.789271
 O         1.597029         0.729063        -1.382615
 O         2.242584         0.146093         0.847600
 H        -0.316950        -0.462766         1.227038
 H        -0.142318         1.193994         0.716628
 H        -0.955314         0.012961        -0.382582
 H         1.621206        -2.222603         0.072209
 H         1.334870        -2.006825        -1.705385
 H         3.961937        -1.727275        -1.302122
 H         4.185595        -0.492704         1.047423
 H         3.982578         2.022219        -0.450845
 H         5.060566         0.902746        -0.992303
 H         3.004364         0.375354        -2.920495
