19
Iteration:  2545charge 0 multiplicity 1
 C        -0.117956         0.230382         0.325477
 C         1.325062        -0.097283        -0.212818
 C         1.789155        -1.486924        -0.713126
 C         3.173761        -1.049335        -1.003117
 C         3.528438        -0.193358         0.150986
 C         3.929023         0.952877        -0.735671
 C         2.931285         0.393563        -1.799503
 O         1.620365         0.772433        -1.333914
 O         2.266070         0.099724         0.827765
 H        -0.150562        -0.538430         1.131274
 H        -0.216923         1.292825         0.622173
 H        -0.894741        -0.113225        -0.401281
 H         1.725976        -2.069111         0.270606
 H         1.221764        -2.179670        -1.393418
 H         3.868815        -1.890283        -1.395696
 H         4.258634        -0.635132         0.888466
 H         3.782848         1.935941        -0.301385
 H         5.004135         0.912482        -0.995806
 H         3.116821         0.595755        -2.942271
