19
Iteration:  1577charge 0 multiplicity 1
 C        -0.000835         0.079935         0.396587
 C         1.310106        -0.074472        -0.320995
 C         1.671528        -1.470660        -0.745788
 C         3.091561        -1.043877        -1.042919
 C         3.529495        -0.143824         0.155600
 C         4.040532         0.954266        -0.714761
 C         2.862521         0.378582        -1.746122
 O         1.655428         0.863409        -1.282522
 O         2.275655         0.065702         0.813691
 H         0.045797        -0.707392         1.294423
 H        -0.175681         1.105662         0.875535
 H        -1.041194        -0.246602        -0.264384
 H         1.357688        -2.213216        -0.056595
 H         1.372441        -1.825933        -1.746636
 H         3.904283        -1.677507        -1.443769
 H         4.234288        -0.533052         0.910591
 H         3.931606         1.986785        -0.381780
 H         4.981750         0.710231        -1.153677
 H         3.038864         0.641913        -2.778477
