19
Iteration:  4987
 C        -0.062561         0.098261         0.151497
 C         1.342327        -0.054965        -0.171887
 C         1.666421        -1.428055        -0.665514
 C         3.090279        -1.037401        -1.032443
 C         3.576515        -0.221684         0.239383
 C         3.906449         1.073363        -0.743566
 C         3.021200         0.298405        -1.704375
 O         1.618039         0.674716        -1.344271
 O         2.309935         0.181117         0.839263
 H        -0.559296        -0.491856         1.002687
 H        -0.107225         1.166426         0.587178
 H        -0.753444        -0.121326        -0.731585
 H         1.654043        -2.157333         0.078367
 H         1.112253        -1.729066        -1.432570
 H         3.749320        -1.920017        -1.369925
 H         4.515600        -0.387832         0.858409
 H         3.583590         2.065708        -0.342730
 H         4.931549         1.057998        -1.092892
 H         3.147141         0.349686        -2.817725
