19
Iteration:  1486charge 0 multiplicity 1
 C        -0.077016         0.130051         0.386819
 C         1.280627        -0.049531        -0.112501
 C         1.717610        -1.441282        -0.872018
 C         3.141347        -1.030041        -1.145581
 C         3.564033        -0.208927         0.192622
 C         3.972259         0.943488        -0.794041
 C         2.962386         0.388694        -1.723581
 O         1.640250         0.727367        -1.232445
 O         2.293379         0.143123         0.828504
 H        -0.367246        -0.780278         1.115521
 H        -0.284925         1.086252         0.994928
 H        -0.837419         0.014408        -0.414947
 H         1.583299        -2.392765        -0.287676
 H         1.047760        -1.564168        -1.712043
 H         3.861133        -1.822328        -1.416829
 H         4.224698        -0.681319         0.946233
 H         3.740598         1.978648        -0.401972
 H         5.026909         0.925197        -1.229782
 H         2.943301         0.782114        -2.773820
