19
Iteration:  4528
 C        -0.197655         0.172394         0.228199
 C         1.327807        -0.095671        -0.171957
 C         1.786299        -1.477812        -0.742010
 C         3.154069        -0.995039        -1.047395
 C         3.619986        -0.159635         0.214985
 C         3.989185         0.938648        -0.730304
 C         2.936930         0.400615        -1.659810
 O         1.601324         0.696559        -1.345487
 O         2.242251         0.132742         0.824107
 H        -0.240600        -0.042463         1.279804
 H        -0.297880         1.213705         0.127360
 H        -0.971788        -0.281311        -0.350232
 H         1.938307        -2.186059         0.146528
 H         1.269253        -1.875282        -1.747866
 H         3.894482        -1.727363        -1.475093
 H         4.262359        -0.416298         1.060759
 H         3.939916         1.952399        -0.394723
 H         4.946094         0.630844        -1.143839
 H         2.967587         0.323133        -2.725370
