19
Iteration:  3922charge 0 multiplicity 1
 C        -0.096346         0.163667         0.367557
 C         1.368593        -0.140415        -0.233998
 C         1.769815        -1.606929        -0.739567
 C         3.086460        -1.008429        -1.108749
 C         3.539452        -0.115134         0.250787
 C         3.979761         0.955388        -0.690780
 C         2.984993         0.488647        -1.726469
 O         1.634171         0.749542        -1.393613
 O         2.184840         0.122140         0.851573
 H        -0.205320        -0.284046         1.319527
 H        -0.234809         1.236461         0.374567
 H        -0.793898        -0.327806        -0.355189
 H         1.528193        -2.280247         0.064723
 H         1.049188        -1.979858        -1.515400
 H         3.998806        -1.554195        -1.447684
 H         4.276835        -0.691231         0.801442
 H         4.079266         2.055228        -0.513304
 H         4.988152         0.658692        -1.138334
 H         3.219295         0.642097        -2.807672
