19
Iteration:  1703
 C        -0.080461         0.113759         0.373506
 C         1.349677        -0.073538        -0.191831
 C         1.738920        -1.437364        -0.754140
 C         3.180330        -1.056445        -1.065059
 C         3.560340        -0.264620         0.146827
 C         3.945749         0.915533        -0.712071
 C         2.919169         0.417596        -1.700808
 O         1.546935         0.774427        -1.294040
 O         2.350867         0.203838         0.764984
 H        -0.424363        -0.562030         1.183833
 H        -0.491974         1.069999         0.642475
 H        -0.789718        -0.221423        -0.411935
 H         1.510525        -2.294112        -0.027355
 H         1.210210        -1.620597        -1.736732
 H         3.864837        -1.814718        -1.532369
 H         4.188533        -0.804803         0.870723
 H         3.885023         1.911988        -0.186120
 H         4.961407         0.840737        -1.161700
 H         2.966988         0.730493        -2.797870
