19
Iteration:  1183charge 0 multiplicity 1
 C        -0.106674         0.170399         0.347623
 C         1.398001        -0.151370        -0.173740
 C         1.743395        -1.464564        -0.889503
 C         3.144130        -1.008825        -1.166740
 C         3.558134        -0.227737         0.109453
 C         3.979830         0.914316        -0.735500
 C         2.870380         0.353654        -1.703904
 O         1.522474         0.781913        -1.152488
 O         2.367513         0.176461         0.877233
 H        -0.371546        -0.288783         1.307649
 H        -0.249810         1.250164         0.409969
 H        -0.710052        -0.237032        -0.423386
 H         1.675234        -2.292713        -0.134921
 H         1.062881        -1.611962        -1.719452
 H         3.838466        -1.687096        -1.686689
 H         4.170892        -0.747209         0.866308
 H         3.837995         2.055871        -0.359170
 H         5.110805         0.841866        -1.061936
 H         2.956765         0.614315        -2.705167
