19
Iteration:   499charge 0 multiplicity 1
 C         0.031823         0.165436         0.425394
 C         1.302154        -0.135456        -0.234745
 C         1.679045        -1.457648        -0.852038
 C         3.147453        -1.048166        -1.072310
 C         3.635219        -0.205197         0.145999
 C         3.891810         0.979008        -0.694539
 C         2.865350         0.399028        -1.714345
 O         1.512153         0.818161        -1.296283
 O         2.407384         0.028175         0.836125
 H        -0.372462        -0.667404         1.084005
 H         0.110158         1.130930         0.891710
 H        -0.655795         0.420888        -0.305912
 H         1.292015        -2.275762        -0.232583
 H         1.271837        -1.348767        -1.896883
 H         3.977528        -1.636316        -1.475654
 H         4.290648        -0.558140         0.895898
 H         3.542659         1.813829        -0.126263
 H         4.875949         0.924192        -1.260006
 H         2.929256         0.548138        -2.716709
