19
Iteration:  1361
 C         0.030618         0.088441         0.380097
 C         1.281499        -0.155140        -0.238551
 C         1.682136        -1.491654        -0.778465
 C         3.085394        -1.010685        -1.150974
 C         3.517480        -0.227410         0.133099
 C         4.004956         1.031341        -0.710990
 C         2.965894         0.438390        -1.705057
 O         1.663764         0.802483        -1.247709
 O         2.220048         0.119723         0.814434
 H         0.032475        -0.411711         1.257878
 H        -0.034836         1.075009         0.682108
 H        -0.897550        -0.176250        -0.140920
 H         1.786518        -2.283265        -0.015082
 H         0.851242        -1.808738        -1.473365
 H         3.905282        -1.664943        -1.453052
 H         4.127406        -0.747035         0.891334
 H         3.908322         2.107461        -0.471740
 H         5.047677         0.678713        -1.164628
 H         2.922102         0.660708        -2.796789
