19
Iteration:  3333
 C        -0.065919         0.131101         0.272577
 C         1.282511        -0.150763        -0.226217
 C         1.742597        -1.516609        -0.686624
 C         3.158698        -1.054592        -1.086866
 C         3.512798        -0.106124         0.211699
 C         3.967780         0.959827        -0.728568
 C         2.975912         0.387390        -1.729020
 O         1.653580         0.759532        -1.322107
 O         2.251757         0.151020         0.825180
 H        -0.267468         0.006978         1.369618
 H        -0.101542         1.209973         0.236539
 H        -1.042304        -0.237154        -0.161024
 H         1.699673        -2.342599         0.066409
 H         1.280503        -2.008500        -1.614886
 H         3.800012        -1.663546        -1.661370
 H         4.076755        -0.410460         1.083014
 H         3.932757         2.007873        -0.421426
 H         4.978867         0.676179        -1.038082
 H         2.873462         0.650878        -2.698319
