19
Iteration:  4530
 C        -0.195672         0.174925         0.218776
 C         1.346206        -0.098941        -0.185234
 C         1.797497        -1.474192        -0.744889
 C         3.154956        -1.009824        -1.024243
 C         3.619780        -0.164371         0.215754
 C         3.971026         0.926997        -0.735531
 C         2.939162         0.398942        -1.653081
 O         1.582293         0.702336        -1.334507
 O         2.246676         0.134396         0.826654
 H        -0.200912        -0.050822         1.297924
 H        -0.354268         1.272472         0.122682
 H        -0.951838        -0.293877        -0.391028
 H         1.896272        -2.141099         0.080022
 H         1.262928        -1.835613        -1.724523
 H         3.883352        -1.714215        -1.424239
 H         4.292205        -0.476596         1.024818
 H         3.934851         1.964168        -0.449817
 H         4.980380         0.712710        -1.183502
 H         3.001935         0.393275        -2.787876
