19
Iteration:  4309
 C        -0.144882         0.164022         0.200633
 C         1.288802        -0.046176        -0.208034
 C         1.698875        -1.513676        -0.753035
 C         3.194778        -1.107464        -0.999792
 C         3.591790        -0.186566         0.227253
 C         3.964821         0.998296        -0.699891
 C         2.919109         0.362911        -1.737529
 O         1.594993         0.775073        -1.316150
 O         2.369919         0.127914         0.841272
 H        -0.230486        -0.168145         1.205635
 H        -0.218387         1.243798         0.214930
 H        -0.811069        -0.347757        -0.505311
 H         1.733352        -2.206616         0.057464
 H         0.976040        -1.834711        -1.544044
 H         3.725685        -1.765194        -1.660320
 H         4.262281        -0.422936         1.044823
 H         3.561218         1.904296        -0.209600
 H         5.004859         1.012904        -1.031816
 H         3.009460         0.342438        -2.792567
