19
Iteration:  2351
 C        -0.094533         0.128380         0.344765
 C         1.301502        -0.150840        -0.268606
 C         1.661431        -1.525137        -0.781500
 C         3.111484        -1.036598        -0.948598
 C         3.664817        -0.151722         0.235233
 C         4.014830         0.945914        -0.740700
 C         2.934509         0.370562        -1.656845
 O         1.506960         0.808110        -1.404609
 O         2.360906         0.179793         0.835543
 H        -0.333797        -0.537045         1.170434
 H        -0.176618         1.160558         0.617715
 H        -0.788051        -0.141013        -0.529627
 H         1.470337        -2.459193        -0.339180
 H         1.304028        -1.646250        -1.746422
 H         3.944668        -1.554326        -1.477966
 H         4.230027        -0.542666         1.082668
 H         3.985154         1.931103        -0.306546
 H         5.010005         0.875372        -1.310271
 H         2.945437         0.405467        -2.723300
