19
Iteration:  4193charge 0 multiplicity 1
 C        -0.092869         0.149691         0.238474
 C         1.338486        -0.117184        -0.198589
 C         1.694295        -1.515705        -0.700769
 C         3.169491        -1.038765        -0.993748
 C         3.587781        -0.150672         0.174122
 C         3.973081         1.004882        -0.734989
 C         2.958076         0.338507        -1.742201
 O         1.595839         0.740076        -1.272357
 O         2.248873         0.145281         0.793286
 H        -0.525189        -0.545315         0.952785
 H         0.013270         1.135211         0.676811
 H        -0.730924         0.268287        -0.659315
 H         1.842568        -2.220683         0.136117
 H         1.224115        -1.727486        -1.592050
 H         3.883291        -1.594448        -1.563514
 H         4.170802        -0.612395         0.993221
 H         3.722775         1.985501        -0.395250
 H         5.010982         0.882683        -1.005300
 H         2.938315         0.473631        -2.849012
