19
Iteration:  4979charge 0 multiplicity 1
 C        -0.122741         0.067241         0.218173
 C         1.292242        -0.126867        -0.209736
 C         1.586128        -1.444616        -0.678518
 C         3.113502        -1.065356        -1.027222
 C         3.653413        -0.149466         0.215088
 C         3.942358         1.052819        -0.725836
 C         3.038715         0.275226        -1.751091
 O         1.682847         0.688838        -1.322776
 O         2.289834         0.225719         0.861774
 H        -0.378081        -0.361174         1.221004
 H        -0.233682         1.160850         0.308374
 H        -0.776274        -0.017140        -0.703619
 H         1.629543        -2.272973         0.017670
 H         1.021463        -1.705736        -1.628879
 H         3.760097        -1.737054        -1.571383
 H         4.331423        -0.424451         1.062392
 H         3.533231         2.003414        -0.354896
 H         4.950227         1.230191        -1.164238
 H         3.166983         0.441654        -2.761559
