19
Iteration:  3087
 C        -0.049184         0.211412         0.271047
 C         1.341342        -0.187415        -0.119218
 C         1.743186        -1.521359        -0.746399
 C         3.138493        -0.980914        -1.053265
 C         3.552241        -0.183816         0.243460
 C         3.974504         1.000712        -0.770291
 C         2.966095         0.366808        -1.724862
 O         1.584313         0.724058        -1.338019
 O         2.243521         0.124165         0.826400
 H        -0.444660        -0.078235         1.278547
 H        -0.125033         1.290398         0.190935
 H        -0.859038        -0.131775        -0.399652
 H         1.654434        -2.405377        -0.186999
 H         1.039941        -1.475927        -1.503469
 H         3.895358        -1.605863        -1.398090
 H         4.284664        -0.613377         0.922769
 H         3.797819         1.987104        -0.351285
 H         4.945705         0.960750        -1.181749
 H         3.171929         0.293553        -2.853038
