19
Iteration:  4174
 C        -0.076266         0.182330         0.314333
 C         1.268432        -0.139053        -0.213019
 C         1.699087        -1.559019        -0.786392
 C         3.161234        -1.034434        -1.061858
 C         3.575588        -0.076705         0.297301
 C         4.009022         0.971699        -0.730349
 C         2.917336         0.385309        -1.666893
 O         1.574019         0.720641        -1.416581
 O         2.318115         0.123882         0.856986
 H        -0.346366        -0.479750         1.135543
 H        -0.215949         1.212635         0.542895
 H        -0.796316         0.064873        -0.442324
 H         1.658382        -2.351808        -0.035200
 H         1.271948        -1.593453        -1.821228
 H         3.880115        -1.805146        -1.289531
 H         4.256867        -0.411098         1.124715
 H         3.941790         2.028048        -0.511187
 H         4.919096         0.751203        -1.298355
 H         3.108407         0.570153        -2.753238
