19
Iteration:  1939charge 0 multiplicity 1
 C        -0.077359         0.210628         0.375037
 C         1.345940        -0.121363        -0.277536
 C         1.672200        -1.542435        -0.766670
 C         3.095965        -1.077997        -1.046843
 C         3.557729        -0.098794         0.195636
 C         3.964078         0.996524        -0.748204
 C         2.933362         0.379976        -1.733279
 O         1.647170         0.803922        -1.266934
 O         2.280863         0.006569         0.812479
 H        -0.201055        -0.274068         1.276410
 H        -0.210006         1.221382         0.497922
 H        -0.856317        -0.135122        -0.363060
 H         1.816449        -2.171255         0.143376
 H         1.230271        -1.953436        -1.724100
 H         3.934557        -1.647129        -1.523656
 H         4.333153        -0.403236         0.914511
 H         3.734567         2.062110        -0.570673
 H         5.093996         1.016801        -1.048833
 H         2.977464         0.614233        -2.771965
