19
Iteration:  4021
 C        -0.073792         0.163127         0.338208
 C         1.280209        -0.165675        -0.243907
 C         1.693296        -1.485201        -0.730271
 C         3.200012        -0.990832        -1.045966
 C         3.566839        -0.144586         0.214635
 C         4.016479         1.013439        -0.687417
 C         2.939204         0.308437        -1.684059
 O         1.567300         0.720126        -1.334720
 O         2.270405         0.149721         0.751210
 H        -0.594858        -0.584173         0.942866
 H         0.063912         1.072807         0.897961
 H        -0.444340         0.235377        -0.697074
 H         1.645014        -2.296954         0.051251
 H         1.059625        -1.908944        -1.630399
 H         3.943223        -1.562234        -1.540830
 H         4.124181        -0.611340         1.037345
 H         3.814332         2.015778        -0.287051
 H         5.082696         0.963580        -1.104821
 H         3.040058         0.634180        -2.734056
