19
Iteration:   704
 C        -0.110252         0.100385         0.475647
 C         1.250523        -0.111838        -0.128710
 C         1.740275        -1.568085        -0.739515
 C         3.086672        -0.986615        -1.224088
 C         3.483346        -0.253736         0.105218
 C         4.057091         0.924076        -0.759454
 C         3.027220         0.515540        -1.803648
 O         1.591725         0.891630        -1.288446
 O         2.301358         0.090181         0.847335
 H        -0.219160        -0.872801         1.120976
 H        -0.200230         0.996193         1.118134
 H        -0.841181         0.320743        -0.260329
 H         1.921078        -2.245119         0.094417
 H         1.067049        -2.014897        -1.517299
 H         3.933233        -1.609468        -1.543688
 H         4.124480        -0.809902         0.848543
 H         4.044011         1.908086        -0.274140
 H         5.124378         0.788758        -1.088961
 H         2.942278         0.660397        -3.013334
