19
Iteration:  2772charge 0 multiplicity 1
 C        -0.172666         0.103278         0.299342
 C         1.320200        -0.087795        -0.261031
 C         1.675952        -1.605363        -0.639484
 C         3.068207        -1.063192        -1.009488
 C         3.623380        -0.181470         0.196928
 C         4.038330         1.035113        -0.765319
 C         2.946057         0.404104        -1.749037
 O         1.629639         0.857556        -1.369980
 O         2.309411         0.098700         0.837098
 H        -0.282968        -0.772020         0.930774
 H        -0.169687         1.072039         0.803089
 H        -0.915882         0.163221        -0.525637
 H         1.593448        -2.119261         0.414536
 H         0.996286        -1.865609        -1.495217
 H         3.811368        -1.736317        -1.540350
 H         4.399088        -0.433779         0.919786
 H         3.971795         2.025519        -0.294270
 H         5.028193         0.816203        -1.234169
 H         3.156662         0.556994        -2.782755
