19
Iteration:  2478charge 0 multiplicity 1
 C        -0.060184         0.131784         0.293530
 C         1.247352        -0.120915        -0.300113
 C         1.698880        -1.537664        -0.692772
 C         3.095685        -1.048624        -1.049280
 C         3.639328        -0.200165         0.225886
 C         4.008056         0.951691        -0.707417
 C         2.942547         0.409676        -1.707017
 O         1.572659         0.835261        -1.380323
 O         2.313158         0.152416         0.842338
 H        -0.046757        -0.424718         1.295795
 H        -0.240603         1.273950         0.358679
 H        -0.882839        -0.331808        -0.226083
 H         1.679954        -2.078353         0.317546
 H         1.147326        -2.041662        -1.566777
 H         3.804313        -1.791865        -1.526046
 H         4.206751        -0.535477         1.077623
 H         3.912842         1.957612        -0.329958
 H         4.988603         0.893790        -1.179702
 H         3.003318         0.511886        -2.835908
