19
Iteration:  1572charge 0 multiplicity 1
 C        -0.034172         0.077675         0.423367
 C         1.322431        -0.085087        -0.292940
 C         1.644708        -1.451979        -0.767062
 C         3.093360        -1.009249        -1.026762
 C         3.582119        -0.159596         0.169019
 C         4.012073         0.979626        -0.738469
 C         2.930800         0.383983        -1.729532
 O         1.637445         0.825890        -1.320995
 O         2.262303         0.042103         0.810974
 H         0.099776        -0.572117         1.243919
 H        -0.071218         1.071775         0.804349
 H        -0.709883        -0.162241        -0.268408
 H         1.360663        -2.250940        -0.031981
 H         1.211873        -1.632284        -1.765023
 H         3.806163        -1.678522        -1.527241
 H         4.178174        -0.441239         1.043552
 H         3.855254         1.997796        -0.334970
 H         4.998745         0.556545        -1.108145
 H         2.864658         0.661851        -2.814524
