19
Iteration:  4619charge 0 multiplicity 1
 C        -0.095248         0.138360         0.264927
 C         1.341875        -0.130785        -0.218936
 C         1.761855        -1.514334        -0.749744
 C         3.160024        -1.073291        -0.976092
 C         3.530774        -0.224892         0.270451
 C         4.006662         1.043116        -0.712571
 C         2.968180         0.433933        -1.731633
 O         1.561593         0.642948        -1.336384
 O         2.266580         0.234189         0.761090
 H        -0.557147        -0.630972         0.914591
 H        -0.030488         1.093501         0.879596
 H        -0.834994         0.384969        -0.493205
 H         1.531605        -2.153636         0.046182
 H         1.108014        -1.691908        -1.647442
 H         3.905296        -1.700109        -1.398650
 H         4.243561        -0.532956         1.059257
 H         3.782736         2.079507        -0.419538
 H         5.023344         0.826408        -1.081845
 H         3.095067         0.484548        -2.877562
