19
Iteration:   476charge 0 multiplicity 1
 C        -0.055591         0.161202         0.507217
 C         1.311749        -0.114879        -0.212808
 C         1.709202        -1.510858        -0.766078
 C         3.085399        -0.954347        -1.216538
 C         3.542154        -0.199577         0.161429
 C         3.970249         1.054559        -0.779706
 C         2.997801         0.429173        -1.804766
 O         1.667781         0.831986        -1.276167
 O         2.237617        -0.059846         0.854701
 H        -0.104750        -0.723834         1.172226
 H        -0.165164         1.098051         1.045910
 H        -0.979189         0.173869        -0.044318
 H         2.005239        -2.116360         0.095462
 H         1.023301        -1.888692        -1.576845
 H         3.781100        -1.715047        -1.553646
 H         4.155134        -0.715237         0.906307
 H         3.641280         2.020918        -0.515512
 H         5.041524         0.740764        -1.092270
 H         2.991131         0.649788        -2.827500
