19
Iteration:  1068
 C        -0.057476         0.104881         0.336024
 C         1.318824        -0.155042        -0.068457
 C         1.789704        -1.468713        -0.732756
 C         3.121202        -0.990331        -1.157471
 C         3.525927        -0.278699         0.085747
 C         3.995329         0.971053        -0.761006
 C         2.846621         0.434308        -1.818266
 O         1.645947         0.875088        -1.219636
 O         2.286190         0.117956         0.834264
 H        -0.369229        -0.635164         1.052894
 H        -0.141342         1.010881         0.933379
 H        -0.766151         0.122319        -0.644778
 H         1.912151        -2.184666         0.074114
 H         0.983376        -1.897783        -1.353250
 H         3.799789        -1.779892        -1.561554
 H         4.144046        -0.854259         0.740585
 H         3.729739         1.941332        -0.253682
 H         5.160208         0.825610        -0.925145
 H         2.760801         0.422368        -2.966878
