19
Iteration:   777charge 0 multiplicity 1
 C        -0.013378         0.159321         0.485198
 C         1.307421        -0.088006        -0.217737
 C         1.701041        -1.525446        -0.829245
 C         3.058196        -0.948988        -1.206616
 C         3.470570        -0.215529         0.125082
 C         4.030295         1.024639        -0.716395
 C         2.978576         0.444133        -1.790478
 O         1.589645         0.713531        -1.224639
 O         2.317169         0.026917         0.871272
 H        -0.032615        -0.373840         1.415787
 H        -0.372306         1.159641         0.531717
 H        -0.797843        -0.103934        -0.268440
 H         1.793594        -2.202522        -0.004243
 H         0.940790        -1.752617        -1.579870
 H         3.787917        -1.679678        -1.548446
 H         4.332952        -0.707878         0.621051
 H         3.981585         2.159153        -0.363570
 H         5.042092         0.818616        -1.110874
 H         3.027500         0.890846        -2.700251
