19
Iteration:  2227charge 0 multiplicity 1
 C        -0.143539         0.117088         0.410958
 C         1.333307        -0.077987        -0.259359
 C         1.726178        -1.480008        -0.760850
 C         3.163686        -1.086391        -1.000812
 C         3.535084        -0.137039         0.242463
 C         3.961396         0.938549        -0.770567
 C         2.939075         0.310530        -1.742434
 O         1.639773         0.897752        -1.411946
 O         2.290488         0.080562         0.861028
 H        -0.357870        -0.736633         1.069243
 H        -0.226751         1.076719         0.975960
 H        -0.735003         0.122369        -0.451317
 H         1.634304        -2.224065         0.078903
 H         1.263194        -1.745289        -1.761455
 H         3.780432        -1.777393        -1.561255
 H         4.299442        -0.390848         0.994133
 H         3.718973         2.019952        -0.413974
 H         5.036141         0.807017        -1.149608
 H         3.127544         0.442554        -2.864408
