19
Iteration:  3865charge 0 multiplicity 1
 C        -0.049579         0.128774         0.251293
 C         1.303700        -0.156490        -0.245685
 C         1.715263        -1.473740        -0.703834
 C         3.105665        -1.039945        -1.063899
 C         3.566008        -0.135840         0.187392
 C         3.926612         1.009442        -0.703010
 C         3.023454         0.409240        -1.794552
 O         1.592263         0.724692        -1.311643
 O         2.297832         0.128447         0.914966
 H        -0.300406        -0.561207         1.013534
 H        -0.249315         1.150090         0.513288
 H        -0.720860        -0.004755        -0.522612
 H         1.612959        -2.199952         0.141574
 H         1.180441        -1.587026        -1.649235
 H         3.760176        -1.913239        -1.348626
 H         4.283096        -0.678026         0.828656
 H         3.650264         2.020546        -0.353307
 H         4.977208         0.890659        -0.970876
 H         3.079543         0.597011        -2.900240
