19
Iteration:  3431
 C        -0.068442         0.118553         0.250624
 C         1.364891        -0.099347        -0.185225
 C         1.750404        -1.447681        -0.678428
 C         3.100209        -1.059528        -1.033041
 C         3.569792        -0.132663         0.214892
 C         4.039182         0.993750        -0.735309
 C         2.941509         0.373517        -1.713484
 O         1.579661         0.728199        -1.324978
 O         2.241206         0.116884         0.802953
 H        -0.544699        -0.781177         0.720923
 H        -0.316267         0.981282         0.913988
 H        -0.543495         0.111003        -0.751089
 H         1.486475        -2.141303         0.127539
 H         1.083782        -1.667341        -1.571565
 H         3.989431        -1.565166        -1.440337
 H         4.297907        -0.490784         0.957507
 H         3.801644         2.040266        -0.707717
 H         5.035606         0.810086        -1.032933
 H         2.813488         0.483605        -2.766246
