19
Iteration:  3736charge 0 multiplicity 1
 C        -0.128333         0.153122         0.274508
 C         1.303880        -0.133406        -0.166780
 C         1.698559        -1.467855        -0.774357
 C         3.207711        -0.996818        -1.040934
 C         3.585098        -0.184788         0.212439
 C         4.034533         1.024398        -0.674437
 C         2.961961         0.383956        -1.803998
 O         1.582248         0.662835        -1.347242
 O         2.248034         0.135899         0.871151
 H        -0.384032        -0.129077         1.308762
 H        -0.201951         1.268144         0.399496
 H        -0.895612        -0.332742        -0.331448
 H         1.656676        -2.301431        -0.159461
 H         1.275998        -1.766557        -1.690786
 H         3.877784        -1.842878        -1.344912
 H         4.187851        -0.583360         0.988588
 H         3.927045         2.098175        -0.334590
 H         5.018623         0.901804        -1.188363
 H         2.898834         0.822695        -2.811135
