19
Iteration:  4908charge 0 multiplicity 1
 C        -0.132453         0.187502         0.254236
 C         1.323921        -0.126815        -0.163150
 C         1.752026        -1.448125        -0.713688
 C         3.189068        -1.041981        -1.028830
 C         3.591272        -0.240111         0.214442
 C         3.893089         0.967966        -0.696240
 C         2.973292         0.293829        -1.714577
 O         1.613011         0.728238        -1.341563
 O         2.300049         0.227453         0.776322
 H        -0.403697        -0.193874         1.248534
 H        -0.426389         1.270918         0.197820
 H        -0.800412        -0.246374        -0.476054
 H         1.560835        -2.137676         0.108677
 H         1.208483        -1.664927        -1.598966
 H         3.884257        -1.785538        -1.418284
 H         4.350762        -0.746136         0.834316
 H         3.413984         1.855169        -0.296335
 H         4.938511         1.123979        -0.991213
 H         3.193076         0.388289        -2.855678
