19
Iteration:   381
 C        -0.027415         0.211414         0.450335
 C         1.285568        -0.175454        -0.259117
 C         1.781233        -1.511141        -0.852428
 C         3.152741        -0.988540        -1.129613
 C         3.551983        -0.189217         0.187302
 C         3.979265         0.966225        -0.756770
 C         2.840774         0.424371        -1.769422
 O         1.551068         0.851558        -1.194637
 O         2.307590        -0.005879         0.824382
 H        -0.161049        -0.337121         1.488381
 H         0.145071         1.278976         0.759746
 H        -0.965866         0.164540        -0.075988
 H         1.770562        -2.374449        -0.118096
 H         1.343530        -1.848696        -1.836587
 H         3.923350        -1.733678        -1.482791
 H         4.323010        -0.558272         0.817225
 H         3.942279         1.985274        -0.383122
 H         4.918361         0.699778        -1.241371
 H         2.854295         0.601238        -2.910455
