19
Iteration:  3514
 C        -0.143327         0.212457         0.284666
 C         1.279527        -0.087296        -0.184391
 C         1.805992        -1.495494        -0.769432
 C         3.167326        -1.049097        -1.112564
 C         3.609757        -0.198466         0.212977
 C         3.956219         0.986037        -0.667734
 C         2.966527         0.341265        -1.720563
 O         1.585401         0.703681        -1.289020
 O         2.257950         0.146649         0.813445
 H        -0.250812        -0.243191         1.230651
 H        -0.456925         1.217983         0.187721
 H        -0.959940        -0.170505        -0.391933
 H         1.785107        -2.343258        -0.069867
 H         1.276316        -1.624949        -1.672052
 H         3.895331        -1.720102        -1.423875
 H         4.299907        -0.390287         1.052096
 H         3.771236         2.018593        -0.343727
 H         5.082462         1.019755        -1.051777
 H         2.965910         0.376391        -2.886095
