19
Iteration:    97
 C         0.059446         0.166722         0.443254
 C         1.305745        -0.105637        -0.218196
 C         1.737302        -1.511697        -0.708623
 C         3.071603        -1.045403        -1.247995
 C         3.490450        -0.203208         0.141434
 C         3.906920         1.044237        -0.687014
 C         2.982096         0.443648        -1.788992
 O         1.586681         0.858029        -1.253198
 O         2.278135        -0.059022         0.832808
 H        -0.146568        -0.470995         1.200204
 H         0.202321         1.161904         0.877530
 H        -0.614984         0.140615        -0.453815
 H         1.746962        -2.076088         0.158365
 H         1.110430        -2.074479        -1.422251
 H         3.698016        -1.765496        -1.742579
 H         4.302629        -0.528415         0.754892
 H         3.653352         2.076087        -0.513667
 H         5.077030         0.894881        -0.841747
 H         3.092782         0.652631        -2.961838
