19
Iteration:   587
 C        -0.132005         0.072548         0.538832
 C         1.331570        -0.180686        -0.091626
 C         1.684093        -1.347400        -0.872768
 C         3.109666        -0.985406        -1.229839
 C         3.501084        -0.250495         0.156622
 C         4.021981         0.930921        -0.748951
 C         2.986684         0.415703        -1.821861
 O         1.620002         0.740865        -1.262857
 O         2.361877         0.172505         0.873578
 H        -0.471313        -0.477289         1.539612
 H        -0.267028         1.165275         0.587550
 H        -0.763590        -0.120536        -0.264682
 H         1.601011        -2.380775        -0.462231
 H         1.121768        -1.300180        -1.853873
 H         3.604179        -1.879845        -1.675447
 H         4.221526        -0.678642         0.839917
 H         3.635987         1.886257        -0.236595
 H         5.175114         0.946839        -1.048298
 H         3.007749         0.624759        -2.823456
