19
Iteration:  2780
 C        -0.088201         0.113287         0.331356
 C         1.256603        -0.058232        -0.161681
 C         1.716814        -1.516179        -0.681068
 C         3.084386        -1.044249        -1.006320
 C         3.567406        -0.139601         0.206988
 C         4.011086         0.970640        -0.768868
 C         2.982022         0.317724        -1.722764
 O         1.609093         0.842751        -1.379207
 O         2.315865         0.108841         0.789744
 H        -0.448786        -0.792227         0.850892
 H        -0.297364         1.027230         0.973861
 H        -0.561717         0.162168        -0.658233
 H         1.529395        -2.407723         0.038433
 H         1.182492        -1.940542        -1.524716
 H         3.808932        -1.632433        -1.752793
 H         4.216787        -0.536840         1.004017
 H         3.806908         1.973067        -0.366954
 H         5.080872         1.042653        -1.164306
 H         3.129186         0.424331        -2.804521
