19
Iteration:   261
 C        -0.022989         0.107327         0.418091
 C         1.276276        -0.111091        -0.218209
 C         1.648879        -1.433440        -0.728692
 C         3.106993        -1.020319        -1.127877
 C         3.623387        -0.285266         0.121406
 C         3.974895         0.992314        -0.699275
 C         2.920934         0.418628        -1.747978
 O         1.566450         0.876631        -1.246038
 O         2.388366         0.024528         0.747928
 H        -0.151806        -0.470075         1.372896
 H        -0.059275         1.139985         0.769011
 H        -0.816963        -0.169697        -0.283514
 H         1.554694        -2.115651         0.105042
 H         1.079619        -1.879867        -1.557879
 H         3.740188        -1.687412        -1.751235
 H         4.201860        -0.797886         0.864849
 H         3.444244         1.864682        -0.384747
 H         4.993288         1.180644        -0.976530
 H         3.007640         0.760432        -2.865270
