19
Iteration:  2848charge 0 multiplicity 1
 C        -0.119750         0.229268         0.300443
 C         1.323617        -0.103289        -0.276963
 C         1.774088        -1.529102        -0.658534
 C         3.174675        -1.067864        -1.113235
 C         3.544593        -0.221767         0.168829
 C         3.915653         0.949226        -0.730399
 C         2.915214         0.411167        -1.736432
 O         1.626723         0.740099        -1.330232
 O         2.288048         0.167612         0.899310
 H        -0.305656        -0.550400         1.048956
 H        -0.065398         1.214413         0.747673
 H        -0.815474         0.114209        -0.564717
 H         1.637502        -2.309399         0.193625
 H         1.268140        -1.955130        -1.574080
 H         3.892596        -1.838513        -1.527700
 H         4.329940        -0.537978         0.855644
 H         3.625693         1.983822        -0.415130
 H         5.003243         0.934974        -1.034776
 H         3.061935         0.671279        -2.743638
