19
Iteration:  1762charge 0 multiplicity 1
 C        -0.106274         0.189584         0.366221
 C         1.310948        -0.153771        -0.228134
 C         1.718986        -1.505714        -0.896661
 C         3.145774        -1.040488        -1.041449
 C         3.628685        -0.168743         0.229037
 C         3.957493         0.996625        -0.773896
 C         2.857066         0.314654        -1.722464
 O         1.586449         0.802179        -1.254402
 O         2.339412         0.130889         0.890929
 H        -0.321278        -0.394918         1.300236
 H        -0.032731         1.303677         0.504820
 H        -0.752406        -0.081077        -0.520452
 H         1.541006        -2.411593        -0.182187
 H         1.193122        -1.612000        -1.964231
 H         3.818214        -1.700517        -1.541299
 H         4.383810        -0.608651         0.892258
 H         3.739980         2.031924        -0.313212
 H         5.015169         0.840987        -1.242661
 H         3.055285         0.379863        -2.767162
