19
Iteration:  1566charge 0 multiplicity 1
 C        -0.016315         0.094147         0.429242
 C         1.299216        -0.083429        -0.206334
 C         1.637117        -1.442381        -0.817938
 C         3.113529        -1.000064        -1.034275
 C         3.595721        -0.185920         0.219777
 C         3.977861         0.974401        -0.772420
 C         2.995712         0.416520        -1.728472
 O         1.603800         0.789847        -1.343901
 O         2.265921         0.041015         0.804778
 H        -0.016122        -0.626752         1.364408
 H        -0.094354         1.179901         0.742196
 H        -0.848964        -0.166598        -0.422487
 H         1.516028        -2.220453        -0.094629
 H         1.011002        -1.534235        -1.716843
 H         3.731206        -1.731212        -1.586129
 H         4.251489        -0.479287         1.045989
 H         3.931128         2.003497        -0.403790
 H         4.994987         0.755739        -1.045311
 H         2.980492         0.507784        -2.799080
