19
Iteration:  1798
 C        -0.012110         0.186832         0.423595
 C         1.234956        -0.097525        -0.269544
 C         1.784694        -1.503338        -0.734127
 C         3.149275        -1.053417        -1.078915
 C         3.566146        -0.268957         0.175288
 C         3.889735         0.958281        -0.666168
 C         2.942877         0.456675        -1.768690
 O         1.592399         0.807120        -1.450685
 O         2.297715         0.085759         0.876229
 H        -0.229975        -0.539158         1.181477
 H         0.018643         1.186424         0.875553
 H        -0.979260         0.221995        -0.342445
 H         1.775481        -2.047653         0.221308
 H         1.166709        -2.080345        -1.453329
 H         3.860128        -1.712685        -1.608778
 H         4.296466        -0.630102         0.935617
 H         3.812387         1.897301        -0.164751
 H         4.935216         0.926623        -1.034217
 H         3.040650         0.610289        -2.868243
