19
Iteration:  3075charge 0 multiplicity 1
 C        -0.081578         0.219646         0.294941
 C         1.276397        -0.123910        -0.237212
 C         1.688983        -1.535171        -0.770064
 C         3.157532        -1.048308        -1.026809
 C         3.605050        -0.145999         0.268638
 C         4.011515         1.002450        -0.773611
 C         2.913378         0.368837        -1.684678
 O         1.573680         0.752848        -1.332463
 O         2.291982         0.078652         0.842220
 H        -0.270852        -0.307556         1.260680
 H        -0.055194         1.275100         0.376077
 H        -0.705111        -0.113852        -0.565991
 H         1.717266        -2.243243         0.015815
 H         1.358465        -1.965426        -1.637853
 H         3.864402        -1.595423        -1.605278
 H         4.148823        -0.242808         1.203212
 H         3.873989         2.052679        -0.530248
 H         4.998067         0.802386        -1.122247
 H         2.967571         0.442142        -2.866797
