19
Iteration:   715charge 0 multiplicity 1
 C        -0.111290         0.113145         0.480206
 C         1.334842        -0.179716        -0.139444
 C         1.715835        -1.463933        -0.793755
 C         3.065218        -0.997060        -1.232646
 C         3.585515        -0.223494         0.111731
 C         4.055523         0.953510        -0.730752
 C         2.957655         0.483426        -1.753995
 O         1.586622         0.782402        -1.288364
 O         2.278568         0.131666         0.872854
 H        -0.679276        -0.667483         1.152013
 H        -0.014323         1.066227         1.022569
 H        -0.758262         0.144557        -0.365061
 H         1.859159        -2.307876        -0.119438
 H         0.939425        -1.742870        -1.545843
 H         3.685188        -1.735664        -1.760169
 H         4.234046        -0.777455         0.840066
 H         3.991583         1.905144        -0.193096
 H         5.037189         0.730914        -1.234213
 H         3.228637         0.793536        -2.908281
