19
Iteration:   495
 C         0.009102         0.160319         0.458315
 C         1.282214        -0.090989        -0.230218
 C         1.709718        -1.466439        -0.849658
 C         3.149314        -1.061753        -1.060008
 C         3.610330        -0.225896         0.151014
 C         3.887222         0.993061        -0.724079
 C         2.868977         0.406058        -1.705990
 O         1.538167         0.840395        -1.316175
 O         2.392714        -0.008406         0.840768
 H        -0.264271        -0.645903         1.088519
 H         0.137012         1.137212         0.994720
 H        -0.734658         0.376186        -0.421215
 H         1.296330        -2.256825        -0.199574
 H         1.302801        -1.539655        -1.885955
 H         3.945152        -1.605142        -1.558984
 H         4.382523        -0.545291         0.965682
 H         3.601258         1.922354        -0.194249
 H         4.874750         0.987788        -1.241915
 H         2.969529         0.541779        -2.875858
