19
Iteration:  2635
 C        -0.102307         0.106281         0.252401
 C         1.340544        -0.153724        -0.169699
 C         1.717380        -1.507710        -0.657562
 C         3.154000        -1.061714        -0.989750
 C         3.556148        -0.214267         0.171120
 C         3.964522         0.977688        -0.813487
 C         2.946314         0.404558        -1.780160
 O         1.597927         0.793565        -1.314819
 O         2.311230         0.191889         0.866607
 H        -0.362127        -0.713405         0.933637
 H        -0.313287         1.081671         0.621601
 H        -0.880893         0.259274        -0.516481
 H         1.551182        -2.373108        -0.064208
 H         1.156599        -1.608233        -1.596473
 H         3.847109        -1.743971        -1.345871
 H         4.229901        -0.602185         0.978584
 H         3.868401         2.043658        -0.472578
 H         4.985400         0.760337        -1.140136
 H         3.061310         0.777742        -2.842653
