19
Iteration:  2219charge 0 multiplicity 1
 C        -0.082714         0.137403         0.391045
 C         1.320236        -0.067678        -0.194644
 C         1.694992        -1.488412        -0.804657
 C         3.114409        -1.018392        -0.987949
 C         3.586889        -0.169793         0.217030
 C         3.960910         0.955789        -0.759668
 C         2.986640         0.373588        -1.778725
 O         1.605575         0.788053        -1.418554
 O         2.310881         0.080939         0.897745
 H        -0.516915        -0.705899         0.951858
 H        -0.379936         1.068110         0.894516
 H        -0.907420         0.246487        -0.529168
 H         1.515948        -2.167568         0.007839
 H         1.269331        -1.704856        -1.754138
 H         3.977091        -1.694404        -1.187630
 H         4.267926        -0.515327         0.998837
 H         3.729974         1.954727        -0.379468
 H         4.955152         0.734329        -1.234007
 H         3.059854         0.472475        -2.889841
