19
Iteration:  1018
 C         0.016282         0.153314         0.455388
 C         1.325918        -0.054369        -0.144499
 C         1.762104        -1.508953        -0.826954
 C         3.108692        -0.928854        -1.142355
 C         3.580806        -0.200443         0.156278
 C         3.989036         0.916691        -0.693029
 C         2.885894         0.395095        -1.778389
 O         1.528037         0.757785        -1.355288
 O         2.291000         0.054815         0.862469
 H        -0.120548        -0.227882         1.501676
 H        -0.182775         1.207456         0.699398
 H        -0.604866        -0.122388        -0.307791
 H         1.546013        -2.493640        -0.396318
 H         1.109634        -1.558490        -1.731959
 H         3.826705        -1.521801        -1.706055
 H         4.298506        -0.518298         0.975664
 H         3.769743         1.857835        -0.156997
 H         4.982362         0.858938        -0.935236
 H         2.851489         0.505994        -2.840662
