19
Iteration:  1977
 C        -0.081519         0.109355         0.270356
 C         1.268868        -0.052697        -0.173781
 C         1.678604        -1.503092        -0.781308
 C         3.115698        -1.033574        -1.091988
 C         3.617548        -0.145678         0.197954
 C         4.016630         0.952199        -0.731148
 C         2.894175         0.355869        -1.682283
 O         1.584241         0.786119        -1.282968
 O         2.369210         0.138714         0.853247
 H        -0.422993        -0.721824         1.043241
 H        -0.345279         1.215455         0.586136
 H        -0.606241        -0.119752        -0.655446
 H         1.614273        -2.387660        -0.179323
 H         1.009767        -1.700291        -1.580870
 H         3.810107        -1.730612        -1.525049
 H         4.337626        -0.475988         0.962250
 H         3.928914         1.969413        -0.336904
 H         4.916050         0.652405        -1.182997
 H         2.991854         0.578650        -2.808803
