19
Iteration:    52
 C         0.015184         0.074608         0.338641
 C         1.395979        -0.060521        -0.094492
 C         1.655916        -1.408896        -0.855094
 C         3.091282        -1.007949        -1.171357
 C         3.586224        -0.174165         0.201238
 C         4.058906         0.898479        -0.733180
 C         2.877699         0.442226        -1.750469
 O         1.480207         0.752433        -1.233032
 O         2.336166         0.111808         0.859240
 H        -0.053478        -0.362107         1.325112
 H        -0.350827         1.106636         0.455469
 H        -0.600236        -0.543075        -0.382969
 H         1.474749        -2.394143        -0.455521
 H         0.882460        -1.404231        -1.648009
 H         3.778629        -1.672578        -1.698829
 H         4.234773        -0.570725         0.976159
 H         4.070146         1.835466        -0.246066
 H         5.113991         0.533834        -1.123998
 H         2.819872         0.742569        -2.902823
