19
Iteration:  4580charge 0 multiplicity 1
 C        -0.143914         0.141152         0.336418
 C         1.283436        -0.070485        -0.257843
 C         1.726718        -1.456043        -0.672438
 C         3.235999        -1.023566        -1.062597
 C         3.468369        -0.208778         0.250483
 C         3.974681         0.995842        -0.778880
 C         3.058776         0.392704        -1.777891
 O         1.620225         0.708516        -1.358562
 O         2.241207         0.130967         0.849682
 H        -0.223499        -0.477406         1.231491
 H        -0.273205         1.182202         0.583434
 H        -0.822714        -0.064465        -0.533153
 H         1.691358        -2.305948         0.109755
 H         1.392641        -1.869419        -1.592845
 H         3.987981        -1.844816        -1.294160
 H         4.032081        -0.591192         1.115896
 H         3.772413         2.059649        -0.456800
 H         5.025375         0.956202        -1.096456
 H         2.991440         0.535887        -2.839349
