19
Iteration:  3225charge 0 multiplicity 1
 C        -0.062081         0.218360         0.267203
 C         1.342241        -0.163832        -0.189647
 C         1.732274        -1.558098        -0.715610
 C         3.172087        -1.034488        -1.016080
 C         3.580859        -0.196418         0.196738
 C         3.953901         1.017808        -0.713636
 C         2.920009         0.400380        -1.707683
 O         1.554091         0.692442        -1.360478
 O         2.284874         0.184659         0.801280
 H        -0.515613        -0.603565         0.810739
 H         0.019299         1.061545         0.900599
 H        -0.606839         0.468764        -0.648058
 H         1.563430        -2.369469         0.040891
 H         1.219588        -1.746619        -1.712212
 H         3.946709        -1.683385        -1.256987
 H         4.279167        -0.506945         0.975568
 H         3.667382         2.010580        -0.336761
 H         5.036257         0.942127        -1.018297
 H         2.901377         0.448609        -2.730295
