19
Iteration:  4140charge 0 multiplicity 1
 C        -0.087171         0.122493         0.344472
 C         1.325682        -0.121602        -0.252772
 C         1.707578        -1.512797        -0.697755
 C         3.102456        -1.069383        -1.104634
 C         3.534736        -0.112311         0.249781
 C         3.952056         0.980984        -0.667983
 C         2.978083         0.333827        -1.710281
 O         1.653611         0.821022        -1.373558
 O         2.284385         0.141730         0.764689
 H        -0.179204        -0.219927         1.353923
 H        -0.158051         1.156027         0.402734
 H        -0.744583        -0.371690        -0.293914
 H         1.846437        -2.371351        -0.027714
 H         1.085375        -2.029816        -1.482352
 H         3.830943        -1.742203        -1.451093
 H         4.095868        -0.582385         1.070067
 H         3.632087         1.957217        -0.406178
 H         4.948574         0.996652        -1.031131
 H         3.081231         0.614302        -2.791901
