19
Iteration:  3137charge 0 multiplicity 1
 C        -0.050819         0.110406         0.343150
 C         1.293828        -0.119860        -0.168071
 C         1.721249        -1.460774        -0.695646
 C         3.121907        -1.023065        -0.976847
 C         3.517007        -0.214881         0.169588
 C         4.007827         0.969283        -0.728630
 C         2.925535         0.443974        -1.768921
 O         1.643421         0.777554        -1.392872
 O         2.243389         0.129196         0.788514
 H        -0.260512        -0.219203         1.327532
 H        -0.312760         1.130298         0.168141
 H        -0.854278        -0.381525        -0.243801
 H         1.687146        -2.275768         0.099207
 H         1.463115        -1.907567        -1.731324
 H         3.909298        -1.727414        -1.339290
 H         4.274557        -0.524879         0.925430
 H         3.883854         1.998302        -0.309405
 H         5.119911         0.828878        -0.939251
 H         3.065409         0.375244        -2.850785
