19
Iteration:   248charge 0 multiplicity 1
 C        -0.050392         0.193587         0.500052
 C         1.304032        -0.057984        -0.271022
 C         1.678690        -1.519386        -0.733240
 C         3.083096        -1.007301        -1.164545
 C         3.574997        -0.303872         0.115306
 C         3.999708         1.096913        -0.718123
 C         2.943843         0.534555        -1.718892
 O         1.569244         0.800195        -1.345425
 O         2.338041        -0.090268         0.830078
 H        -0.019634        -0.471818         1.375841
 H        -0.307243         1.289619         0.654058
 H        -0.955797        -0.146731        -0.201586
 H         1.880759        -2.062689         0.227939
 H         0.944053        -2.076467        -1.426601
 H         3.812834        -1.710287        -1.499547
 H         4.336803        -0.769535         0.715891
 H         3.994819         1.916946        -0.120901
 H         4.987078         1.004004        -1.243781
 H         3.007565         0.689826        -2.820583
