19
Iteration:   813
 C        -0.066659         0.073242         0.453234
 C         1.304632        -0.021581        -0.185267
 C         1.723545        -1.416132        -0.834776
 C         3.110315        -1.027857        -1.125909
 C         3.638212        -0.276234         0.122259
 C         3.941052         0.946511        -0.699524
 C         2.898485         0.373459        -1.673324
 O         1.557718         0.837896        -1.226290
 O         2.366643         0.115835         0.737567
 H        -0.302848        -0.531700         1.393311
 H        -0.311307         1.128414         0.617312
 H        -0.578352        -0.418091        -0.291660
 H         1.540333        -2.268235        -0.176711
 H         1.212922        -1.620155        -1.795534
 H         3.875987        -1.658898        -1.584717
 H         4.241524        -0.829775         0.866086
 H         3.796683         2.005512        -0.380584
 H         4.983491         0.738315        -1.250970
 H         2.765773         0.644805        -2.720344
