19
Iteration:  4297charge 0 multiplicity 1
 C        -0.099435         0.174647         0.255703
 C         1.306828        -0.158740        -0.288902
 C         1.663664        -1.539947        -0.655612
 C         3.064931        -1.069891        -1.028346
 C         3.616809        -0.141348         0.207382
 C         3.955389         1.025026        -0.715079
 C         2.984152         0.395504        -1.695240
 O         1.636855         0.799184        -1.388010
 O         2.331370         0.087314         0.852019
 H        -0.229264        -0.356429         1.157443
 H        -0.455679         1.183538         0.361456
 H        -0.853150        -0.253892        -0.383967
 H         1.382784        -2.228225         0.170879
 H         1.150823        -1.881572        -1.630195
 H         3.896133        -1.675401        -1.269574
 H         4.358037        -0.553250         0.882419
 H         3.822357         2.054189        -0.329745
 H         4.968633         1.019742        -1.074936
 H         3.169376         0.545440        -2.733911
