19
Iteration:  3873charge 0 multiplicity 1
 C        -0.081851         0.161785         0.256457
 C         1.340853        -0.142841        -0.176704
 C         1.719418        -1.492103        -0.770430
 C         3.147106        -1.070497        -1.003232
 C         3.500674        -0.178276         0.224636
 C         3.902308         1.006852        -0.709389
 C         2.954802         0.394777        -1.791812
 O         1.619650         0.774052        -1.370294
 O         2.342573         0.138630         0.922980
 H        -0.262164        -0.617461         1.069994
 H        -0.287693         1.221324         0.477207
 H        -0.651203        -0.144659        -0.614225
 H         1.705589        -2.435671        -0.123870
 H         1.033885        -1.792560        -1.556004
 H         3.749028        -1.847101        -1.440653
 H         4.417279        -0.539323         0.741363
 H         3.654342         1.958583        -0.297401
 H         4.890609         1.089398        -1.078304
 H         3.163246         0.612165        -2.835503
