19
Iteration:   266charge 0 multiplicity 1
 C        -0.027711         0.088476         0.398920
 C         1.323438        -0.118423        -0.182487
 C         1.665072        -1.447937        -0.753511
 C         3.078814        -1.024792        -1.150584
 C         3.636468        -0.264420         0.107706
 C         3.934871         0.933936        -0.693457
 C         2.911240         0.393377        -1.737686
 O         1.582460         0.887324        -1.226118
 O         2.379099         0.092526         0.768060
 H        -0.086449        -0.532665         1.272805
 H        -0.046672         1.136126         0.726076
 H        -0.868504        -0.080534        -0.296534
 H         1.544446        -2.292449        -0.031611
 H         1.151002        -1.638882        -1.716349
 H         3.669781        -1.675105        -1.794424
 H         4.297107        -0.662165         0.935687
 H         3.364884         1.872095        -0.348473
 H         4.999167         1.114146        -0.990315
 H         2.935366         0.621677        -2.759624
