19
Iteration:  4591charge 0 multiplicity 1
 C        -0.124623         0.154298         0.307368
 C         1.321878        -0.119840        -0.255111
 C         1.805819        -1.563375        -0.773333
 C         3.148009        -1.028170        -0.954038
 C         3.545274        -0.147477         0.249373
 C         4.011335         0.972655        -0.688603
 C         2.924870         0.390443        -1.779134
 O         1.585406         0.760737        -1.412396
 O         2.238120         0.162755         0.830439
 H        -0.364913        -0.523172         1.142548
 H        -0.052207         1.130416         0.761008
 H        -1.063954         0.073880        -0.300165
 H         1.618575        -2.196377         0.167619
 H         1.203064        -1.910373        -1.571720
 H         3.995710        -1.630229        -1.410917
 H         4.339693        -0.441320         0.947096
 H         4.003803         2.051251        -0.384629
 H         5.048170         0.667734        -0.945939
 H         3.108057         0.363460        -2.842527
