19
Iteration:   646charge 0 multiplicity 1
 C        -0.117880         0.239927         0.428439
 C         1.276856        -0.098463        -0.107659
 C         1.727326        -1.487935        -0.852921
 C         3.113654        -0.937615        -1.220481
 C         3.557349        -0.255618         0.125259
 C         3.943955         0.980705        -0.749479
 C         2.918692         0.424308        -1.742760
 O         1.645486         0.723296        -1.228282
 O         2.369789         0.032379         0.881405
 H        -0.376677        -0.447576         1.177499
 H        -0.139956         1.252758         0.836354
 H        -0.826354        -0.066787        -0.429513
 H         1.832097        -2.362604        -0.202403
 H         1.122437        -1.754969        -1.699724
 H         3.768038        -1.625502        -1.739383
 H         4.383185        -0.663905         0.770326
 H         3.784340         1.962567        -0.099195
 H         4.935295         0.946607        -1.216921
 H         2.843357         0.544559        -2.871667
