19
Iteration:  3423charge 0 multiplicity 1
 C        -0.150740         0.099416         0.252935
 C         1.278590        -0.100314        -0.232027
 C         1.690360        -1.469728        -0.662937
 C         3.168744        -0.988019        -1.051725
 C         3.552996        -0.131439         0.231193
 C         4.027772         0.975130        -0.796460
 C         2.952194         0.368438        -1.709162
 O         1.586014         0.763530        -1.298919
 O         2.289974         0.089741         0.813947
 H        -0.529436        -0.777779         0.775417
 H         0.060057         1.050677         0.775165
 H        -0.630301         0.306943        -0.665848
 H         1.843086        -2.184788         0.213897
 H         1.209480        -2.127670        -1.486882
 H         3.948744        -1.793926        -1.407493
 H         4.223286        -0.260614         1.110204
 H         4.016311         2.074938        -0.480387
 H         5.056603         0.724862        -1.161993
 H         3.147734         0.555834        -2.759013
