19
Iteration:   810
 C        -0.065790         0.080036         0.469172
 C         1.297328        -0.035890        -0.184566
 C         1.755402        -1.416979        -0.830606
 C         3.106491        -1.012310        -1.112808
 C         3.656396        -0.282559         0.133635
 C         3.943733         0.929796        -0.694973
 C         2.876308         0.365797        -1.674175
 O         1.561745         0.848017        -1.237826
 O         2.356796         0.110296         0.711966
 H        -0.295162        -0.480162         1.398903
 H        -0.266203         1.114060         0.594279
 H        -0.608328        -0.443534        -0.374805
 H         1.496452        -2.245389        -0.210404
 H         1.168008        -1.537097        -1.761224
 H         3.883189        -1.594733        -1.619389
 H         4.295417        -0.792202         0.903396
 H         3.803254         2.029165        -0.340484
 H         4.827896         0.697428        -1.263672
 H         2.770326         0.650147        -2.644648
