19
Iteration:  2739charge 0 multiplicity 1
 C        -0.087151         0.164040         0.281325
 C         1.403103        -0.109564        -0.144923
 C         1.763829        -1.580277        -0.743810
 C         3.096149        -0.984871        -1.109627
 C         3.590053        -0.197654         0.224688
 C         3.990433         0.936006        -0.709123
 C         2.892535         0.367234        -1.727342
 O         1.563538         0.784270        -1.344501
 O         2.282430         0.199911         0.846247
 H        -0.572425        -0.175061         1.206522
 H        -0.346158         1.227324         0.436823
 H        -0.777061        -0.270831        -0.469361
 H         1.757099        -2.623047        -0.126639
 H         1.062266        -1.717162        -1.626989
 H         3.953508        -1.556011        -1.629925
 H         4.180210        -0.552738         1.076674
 H         3.945700         1.975061        -0.363278
 H         5.039440         0.721071        -1.053571
 H         3.041896         0.351451        -2.795495
