19
Iteration:   904charge 0 multiplicity 1
 C        -0.006495         0.146710         0.448240
 C         1.339607        -0.027432        -0.198969
 C         1.690801        -1.434205        -0.725396
 C         3.134065        -1.006240        -1.230699
 C         3.558063        -0.225226         0.168860
 C         3.971051         0.953811        -0.690885
 C         2.885923         0.489022        -1.822557
 O         1.557541         0.729352        -1.330435
 O         2.318211         0.024250         0.874997
 H        -0.199584        -0.709613         0.962944
 H         0.047001         0.873557         1.233064
 H        -0.768723         0.243902        -0.331258
 H         1.697438        -2.329480        -0.054246
 H         1.076508        -1.761217        -1.557439
 H         3.877518        -1.771527        -1.468070
 H         4.248924        -0.754082         0.789275
 H         3.638660         1.888030        -0.258173
 H         5.045774         0.850343        -1.008091
 H         3.053054         0.917174        -2.872055
