19
Iteration:  3488
 C         0.019603         0.161389         0.305304
 C         1.298097        -0.171038        -0.254232
 C         1.756008        -1.552822        -0.719424
 C         3.065716        -0.983450        -1.004523
 C         3.535612        -0.158559         0.210052
 C         3.968506         0.982159        -0.698342
 C         2.939273         0.472194        -1.719688
 O         1.624338         0.739710        -1.414671
 O         2.211862         0.080819         0.848944
 H        -0.144298        -0.327594         1.284004
 H        -0.143131         1.266447         0.353141
 H        -0.801888         0.008868        -0.333563
 H         1.759692        -2.178267         0.223821
 H         1.233850        -1.876988        -1.706626
 H         4.032181        -1.600671        -1.207810
 H         4.318770        -0.528078         0.934608
 H         4.021957         2.060592        -0.484071
 H         4.917325         0.727328        -1.152474
 H         3.033157         0.579606        -2.756734
