19
Iteration:  4774
 C        -0.076451         0.171732         0.183313
 C         1.383858        -0.125302        -0.202122
 C         1.725113        -1.524495        -0.743343
 C         3.181016        -1.049089        -0.946491
 C         3.580544        -0.084189         0.213016
 C         4.019650         0.988855        -0.817156
 C         2.895990         0.342290        -1.671296
 O         1.543011         0.731172        -1.293355
 O         2.201107         0.132747         0.868023
 H        -0.322093        -0.270976         1.168337
 H         0.034016         1.216120         0.385201
 H        -0.634294        -0.126429        -0.747596
 H         1.718354        -2.332475         0.050754
 H         1.115980        -1.934424        -1.608685
 H         3.837269        -1.638293        -1.625221
 H         4.310641        -0.432232         0.972758
 H         4.086062         2.051327        -0.428676
 H         5.064551         0.829740        -1.133509
 H         2.966541         0.438452        -2.877578
