19
Iteration:  4469
 C        -0.152644         0.122888         0.287761
 C         1.327412        -0.051995        -0.156663
 C         1.716265        -1.497307        -0.766734
 C         3.139709        -1.076533        -0.996491
 C         3.614296        -0.144929         0.270532
 C         3.977059         0.980222        -0.727538
 C         3.020578         0.329059        -1.738100
 O         1.552995         0.750114        -1.439268
 O         2.318902         0.165845         0.833270
 H        -0.490351        -0.583778         1.052437
 H        -0.218252         1.119606         0.821399
 H        -0.894140         0.073076        -0.531507
 H         1.428975        -2.407814        -0.155261
 H         1.139733        -1.644850        -1.632841
 H         3.903418        -1.763428        -1.215646
 H         4.282492        -0.536123         1.077825
 H         3.600087         2.023261        -0.511831
 H         5.064560         1.071343        -0.927492
 H         3.131153         0.319341        -2.822471
