19
Iteration:  4545
 C        -0.047672         0.157986         0.192996
 C         1.258383        -0.102037        -0.246672
 C         1.714318        -1.531947        -0.709523
 C         3.210293        -1.075346        -0.960422
 C         3.549813        -0.198879         0.267614
 C         3.950432         1.002840        -0.753518
 C         2.930015         0.359292        -1.773104
 O         1.562060         0.788004        -1.313438
 O         2.353223         0.162456         0.871947
 H        -0.371150        -0.226382         1.186735
 H        -0.333791         1.258815         0.043196
 H        -0.701624        -0.498340        -0.486436
 H         1.445668        -2.353976        -0.034763
 H         1.324872        -1.676723        -1.633878
 H         3.976442        -1.735653        -1.359694
 H         4.233193        -0.632016         1.036962
 H         3.579139         1.989929        -0.316433
 H         4.991818         0.877235        -1.186384
 H         3.033074         0.709895        -2.854298
