19
Iteration:  3360charge 0 multiplicity 1
 C        -0.039167         0.180623         0.297773
 C         1.290173        -0.046986        -0.227617
 C         1.684305        -1.538462        -0.759598
 C         3.172629        -1.048282        -0.972668
 C         3.559983        -0.166325         0.198594
 C         3.937775         1.027087        -0.723708
 C         3.005245         0.347504        -1.728108
 O         1.602612         0.721354        -1.424061
 O         2.295336         0.116274         0.877602
 H        -0.241493        -0.279789         1.267719
 H        -0.409282         1.170234         0.656730
 H        -0.900296        -0.163478        -0.258214
 H         1.536569        -2.359725        -0.041043
 H         1.238344        -1.918957        -1.694936
 H         4.011552        -1.647097        -1.512577
 H         4.134136        -0.588840         1.049728
 H         3.594709         1.940172        -0.143346
 H         4.990637         1.108845        -1.153321
 H         2.957397         0.535456        -2.911435
