19
Iteration:  3172charge 0 multiplicity 1
 C        -0.093443         0.100962         0.292424
 C         1.316351        -0.148114        -0.213944
 C         1.744763        -1.480092        -0.771424
 C         3.114716        -1.033691        -1.019188
 C         3.568823        -0.146738         0.287874
 C         4.013765         0.964033        -0.789546
 C         2.926555         0.379328        -1.690305
 O         1.604558         0.747150        -1.318678
 O         2.271857         0.196216         0.809843
 H        -0.379863        -0.499695         1.141074
 H        -0.125050         1.105835         0.551827
 H        -0.676208        -0.087372        -0.598473
 H         1.553279        -2.241288        -0.060159
 H         1.237919        -1.666953        -1.695528
 H         3.694602        -1.707175        -1.546566
 H         4.320952        -0.358409         1.066216
 H         3.912823         1.988918        -0.412391
 H         5.025003         0.741211        -1.152098
 H         2.921970         0.266975        -2.765552
