19
Iteration:  1506charge 0 multiplicity 1
 C        -0.076027         0.154839         0.351639
 C         1.297179        -0.107092        -0.241036
 C         1.739447        -1.498810        -0.715312
 C         3.106392        -0.981527        -1.104787
 C         3.566215        -0.206022         0.177558
 C         3.989352         1.004199        -0.749565
 C         2.895804         0.460775        -1.764892
 O         1.584775         0.833165        -1.326529
 O         2.330860        -0.037694         0.901957
 H        -0.477612        -0.383348         1.189595
 H        -0.059176         1.207545         0.699664
 H        -0.802573         0.143446        -0.395569
 H         1.724151        -2.297759         0.082024
 H         1.097504        -1.928887        -1.512830
 H         3.774982        -1.606744        -1.682275
 H         4.423470        -0.641819         0.728644
 H         3.913710         2.043213        -0.317204
 H         5.066447         0.621890        -1.013338
 H         3.073825         0.460017        -2.892418
