19
Iteration:   709charge 0 multiplicity 1
 C        -0.120155         0.094205         0.506856
 C         1.285877        -0.162496        -0.135774
 C         1.732187        -1.529009        -0.764334
 C         3.069103        -1.012048        -1.242260
 C         3.529701        -0.224179         0.106589
 C         4.064372         0.942203        -0.756477
 C         3.031424         0.521416        -1.813860
 O         1.583046         0.847567        -1.289626
 O         2.283050         0.115125         0.878146
 H        -0.385113        -0.722909         1.106452
 H        -0.205543         1.068985         1.019613
 H        -0.801070         0.357784        -0.372398
 H         1.970604        -2.294558         0.022340
 H         1.005149        -1.851395        -1.498466
 H         3.846039        -1.676707        -1.664170
 H         4.051754        -0.824791         0.822939
 H         4.030451         1.848038        -0.094401
 H         5.024031         0.770230        -1.220862
 H         3.101233         0.627269        -2.812624
