19
Iteration:  1927
 C        -0.035774         0.222747         0.347889
 C         1.285689        -0.118046        -0.205183
 C         1.711843        -1.596011        -0.818722
 C         3.138669        -1.077948        -1.016842
 C         3.632748        -0.180337         0.241475
 C         3.918221         0.995080        -0.743185
 C         2.925767         0.483238        -1.711854
 O         1.567339         0.758609        -1.357724
 O         2.342352         0.100086         0.823957
 H        -0.083552        -0.237682         1.260624
 H        -0.103995         1.247262         0.506019
 H        -0.884786        -0.157921        -0.263451
 H         1.219377        -2.397502        -0.155063
 H         1.127055        -1.895250        -1.793252
 H         3.799223        -1.797984        -1.508626
 H         4.279941        -0.437889         1.094653
 H         3.714274         1.962048        -0.236348
 H         4.980665         0.801035        -1.216607
 H         3.080214         0.691321        -2.736282
