19
Iteration:  2888charge 0 multiplicity 1
 C        -0.149484         0.107390         0.252284
 C         1.272240        -0.077586        -0.192128
 C         1.783032        -1.467471        -0.780506
 C         3.138982        -1.095034        -0.945906
 C         3.629107        -0.178391         0.186987
 C         3.955803         0.955519        -0.792038
 C         2.973013         0.420058        -1.743486
 O         1.600973         0.763807        -1.296315
 O         2.278179         0.143814         0.855512
 H        -0.076894        -0.256927         1.301808
 H        -0.419586         1.220581         0.376868
 H        -1.044739        -0.320998        -0.232854
 H         1.579928        -2.160923         0.048051
 H         1.272493        -1.649285        -1.692589
 H         3.957542        -1.809461        -1.501092
 H         4.310569        -0.608253         0.991832
 H         3.870358         2.002086        -0.504442
 H         4.970952         0.661588        -1.155027
 H         2.888336         0.687898        -2.865193
