19
Iteration:   299charge 0 multiplicity 1
 C        -0.110940         0.085408         0.408192
 C         1.310981        -0.165551        -0.138480
 C         1.668333        -1.424275        -0.816105
 C         3.076007        -0.914928        -1.111357
 C         3.569567        -0.141827         0.173310
 C         4.120051         0.896200        -0.885177
 C         2.954038         0.462577        -1.745908
 O         1.515364         0.767580        -1.213515
 O         2.344418         0.038951         0.887728
 H        -0.402418        -0.701632         1.043361
 H        -0.080959         1.034858         0.965608
 H        -0.877359         0.176844        -0.400472
 H         1.513775        -2.366887        -0.237576
 H         1.205143        -1.471501        -1.816746
 H         3.795743        -1.578498        -1.552880
 H         4.380771        -0.560424         0.854991
 H         4.215829         2.048377        -0.778758
 H         5.158222         0.523201        -1.165115
 H         2.882311         0.680344        -2.770391
