19
Iteration:    81
 C        -0.087970         0.233251         0.408387
 C         1.278731        -0.162323        -0.212486
 C         1.712862        -1.526422        -0.796533
 C         3.128738        -0.969880        -1.109953
 C         3.632800        -0.253250         0.110567
 C         3.972866         1.002156        -0.750444
 C         2.869744         0.466806        -1.708682
 O         1.626590         0.801576        -1.253051
 O         2.337334         0.012867         0.792807
 H        -0.155958        -0.479788         1.374955
 H        -0.134324         1.281647         0.796437
 H        -1.045673         0.089508        -0.139922
 H         1.761298        -2.420268        -0.012740
 H         1.055543        -1.948835        -1.603062
 H         3.910587        -1.609901        -1.584488
 H         4.269306        -0.805630         0.863289
 H         3.618022         1.879786        -0.143856
 H         4.926998         1.055570        -1.206401
 H         2.888624         0.703597        -2.739759
