19
Iteration:  1952charge 0 multiplicity 1
 C        -0.092130         0.164486         0.312594
 C         1.266549        -0.124288        -0.174091
 C         1.765096        -1.454616        -0.703622
 C         3.162355        -0.958148        -1.115650
 C         3.487210        -0.206120         0.161372
 C         3.958508         1.043030        -0.816198
 C         2.999145         0.326504        -1.809212
 O         1.679765         0.821041        -1.230590
 O         2.241285         0.021105         0.869916
 H        -0.186640        -0.427520         1.271795
 H        -0.055969         1.240109         0.512203
 H        -0.892961        -0.136908        -0.370151
 H         1.697023        -2.216273         0.026341
 H         1.082003        -1.814283        -1.418037
 H         3.840567        -1.807440        -1.473359
 H         4.147598        -0.643612         0.923838
 H         3.713754         2.053111        -0.454432
 H         5.003391         0.757630        -1.047598
 H         2.961949         0.295027        -2.925878
