19
Iteration:  4050
 C        -0.082750         0.167056         0.362965
 C         1.290970        -0.038171        -0.221122
 C         1.714477        -1.534586        -0.746761
 C         3.165762        -1.083606        -1.074579
 C         3.567070        -0.130407         0.254815
 C         3.936729         0.980275        -0.695246
 C         2.935642         0.309338        -1.747945
 O         1.629044         0.772492        -1.453049
 O         2.275649         0.138263         0.884473
 H        -0.380256        -0.638707         1.009529
 H        -0.230740         1.035216         1.047038
 H        -0.612081        -0.001343        -0.607872
 H         1.838461        -2.348677         0.048889
 H         1.218616        -1.746813        -1.710884
 H         3.990953        -1.716118        -1.603314
 H         4.255439        -0.568811         1.016746
 H         3.635381         1.947989        -0.295393
 H         4.914318         0.983594        -1.062537
 H         3.164662         0.705700        -2.797359
