19
Iteration:  4667
 C        -0.040634         0.151235         0.197602
 C         1.317485        -0.129476        -0.248905
 C         1.689162        -1.534622        -0.690671
 C         3.188286        -1.053808        -0.998708
 C         3.515984        -0.083287         0.177479
 C         3.982353         0.998136        -0.743480
 C         2.910120         0.347123        -1.745318
 O         1.632300         0.743619        -1.268395
 O         2.257243         0.143208         0.855044
 H        -0.461032        -0.584342         0.945915
 H        -0.139935         1.154732         0.629087
 H        -0.838069         0.173413        -0.662056
 H         1.625376        -2.319015         0.113910
 H         1.356342        -1.827354        -1.624938
 H         3.994379        -1.834872        -1.151459
 H         4.359545        -0.331124         0.855086
 H         3.762459         2.020688        -0.330875
 H         5.017923         0.806206        -1.126923
 H         2.942907         0.470839        -2.872740
