19
Iteration:  4649charge 0 multiplicity 1
 C        -0.105305         0.128196         0.219035
 C         1.342048        -0.066269        -0.202881
 C         1.772704        -1.489474        -0.651023
 C         3.100321        -1.038430        -1.001567
 C         3.568506        -0.204814         0.294298
 C         3.900176         1.052959        -0.802264
 C         3.016538         0.357525        -1.752858
 O         1.631224         0.759301        -1.373163
 O         2.270266         0.073799         0.843504
 H        -0.371493        -0.704780         0.831340
 H        -0.254781         1.027179         0.801576
 H        -0.600036         0.305679        -0.668054
 H         1.688650        -2.032299         0.298807
 H         0.942471        -1.828537        -1.472675
 H         3.752510        -1.652137        -1.564352
 H         4.233171        -0.467886         1.135782
 H         3.572417         2.057070        -0.668807
 H         4.924891         1.006250        -1.120024
 H         3.158371         0.342462        -2.796300
