19
Iteration:   799
 C        -0.053767         0.094909         0.429754
 C         1.333537        -0.181620        -0.163838
 C         1.720531        -1.467220        -0.821391
 C         3.151904        -0.984060        -1.084843
 C         3.637015        -0.276459         0.196180
 C         3.985084         0.877037        -0.747350
 C         2.799052         0.488537        -1.696620
 O         1.538123         0.878103        -1.300431
 O         2.342785         0.094296         0.752409
 H        -0.025100        -0.331981         1.439006
 H        -0.210734         1.149915         0.514645
 H        -0.971722        -0.166580        -0.112760
 H         1.577594        -2.329244        -0.196105
 H         1.100969        -1.439638        -1.729534
 H         3.759927        -1.523075        -1.809983
 H         4.366744        -0.514104         0.998644
 H         4.032437         1.872665        -0.141828
 H         4.899056         0.817058        -1.342259
 H         3.101497         0.553859        -2.660128
