19
Iteration:  4777
 C        -0.059247         0.173181         0.179190
 C         1.348229        -0.126454        -0.196422
 C         1.724267        -1.516757        -0.710708
 C         3.196394        -1.032362        -0.962030
 C         3.586013        -0.109888         0.198000
 C         4.014738         0.971193        -0.790381
 C         2.888217         0.350514        -1.694129
 O         1.556011         0.734928        -1.279417
 O         2.196824         0.138485         0.840460
 H        -0.323244        -0.375847         1.114893
 H         0.056670         1.253954         0.396815
 H        -0.656456        -0.102850        -0.727055
 H         1.744998        -2.290552         0.017071
 H         1.327683        -1.892123        -1.525062
 H         3.813066        -1.701167        -1.543532
 H         4.288760        -0.423337         0.964467
 H         3.953473         2.037074        -0.533731
 H         5.080802         0.823117        -1.061112
 H         2.885301         0.445487        -2.821238
