19
Iteration:  4286
 C        -0.062006         0.123527         0.309487
 C         1.280444        -0.048611        -0.230517
 C         1.685243        -1.501225        -0.680990
 C         3.136772        -0.975251        -0.994069
 C         3.530500        -0.200656         0.201007
 C         3.989486         1.016823        -0.725080
 C         3.012374         0.393921        -1.741514
 O         1.650858         0.719705        -1.388630
 O         2.221312         0.085051         0.829157
 H        -0.149368        -0.387252         1.228493
 H        -0.050256         1.193703         0.499967
 H        -0.735525        -0.172091        -0.461698
 H         1.754416        -2.213863         0.137345
 H         1.234151        -1.884685        -1.645329
 H         3.694754        -1.787459        -1.393839
 H         4.191589        -0.638078         0.935260
 H         3.740133         2.082081        -0.617739
 H         4.965445         0.780645        -1.110710
 H         3.130494         0.709655        -2.745244
