19
Iteration:  2767
 C        -0.162453         0.106073         0.258367
 C         1.326531        -0.102086        -0.289712
 C         1.659835        -1.567652        -0.625271
 C         3.100410        -1.064963        -1.029032
 C         3.632042        -0.193144         0.171773
 C         4.027830         1.011308        -0.759144
 C         2.927797         0.459969        -1.734614
 O         1.635900         0.827089        -1.345853
 O         2.306872         0.110433         0.853449
 H        -0.345085        -0.670371         1.046432
 H        -0.173401         1.060689         0.831583
 H        -1.031571         0.084983        -0.404317
 H         1.672192        -2.037337         0.289027
 H         1.030035        -1.969636        -1.396120
 H         3.834378        -1.818620        -1.384236
 H         4.355505        -0.531011         0.949662
 H         3.970459         2.050340        -0.396537
 H         5.008695         0.736876        -1.170421
 H         3.058696         0.564250        -2.863945
