19
Iteration:  3044charge 0 multiplicity 1
 C        -0.084455         0.088560         0.337592
 C         1.313148        -0.091627        -0.129604
 C         1.703392        -1.489421        -0.708322
 C         3.147392        -1.006490        -1.086179
 C         3.509043        -0.215891         0.215054
 C         4.005226         0.969389        -0.742602
 C         2.978776         0.337285        -1.778751
 O         1.659962         0.785709        -1.386091
 O         2.240757         0.184989         0.837802
 H        -0.420844        -0.791430         0.947643
 H        -0.060892         1.070837         0.791846
 H        -0.679531         0.211670        -0.588882
 H         1.761453        -2.170174         0.119894
 H         1.162171        -1.929713        -1.511259
 H         3.794744        -1.665240        -1.548672
 H         4.054181        -0.504112         1.073905
 H         3.682925         1.980402        -0.466168
 H         5.049927         0.935000        -0.973440
 H         2.981988         0.493875        -2.824858
