19
Iteration:  1203charge 0 multiplicity 1
 C        -0.099609         0.083267         0.370699
 C         1.353471        -0.106459        -0.173441
 C         1.677341        -1.519360        -0.739714
 C         3.038324        -0.983315        -1.107108
 C         3.590592        -0.171151         0.172131
 C         3.993925         0.959290        -0.794219
 C         2.910160         0.503124        -1.784598
 O         1.670919         0.838653        -1.284885
 O         2.293817         0.010211         0.876103
 H        -0.162727        -0.422687         1.380923
 H        -0.190218         1.175978         0.562557
 H        -0.692456        -0.328606        -0.329560
 H         1.553577        -2.300847        -0.009150
 H         1.102999        -1.732308        -1.633530
 H         3.695928        -1.658091        -1.620700
 H         4.155517        -0.667960         0.961393
 H         4.222465         1.982121        -0.362586
 H         4.960951         0.767752        -1.332796
 H         2.954671         0.681145        -2.863451
