19
Iteration:  4475
 C        -0.157774         0.141211         0.315819
 C         1.377351        -0.075984        -0.212740
 C         1.733121        -1.494016        -0.752040
 C         3.160925        -1.076883        -1.006049
 C         3.635127        -0.114480         0.314143
 C         3.955970         0.977960        -0.675072
 C         2.981737         0.294229        -1.730594
 O         1.561222         0.777256        -1.443744
 O         2.303709         0.169179         0.805688
 H        -0.427508        -0.635356         1.090691
 H        -0.316694         1.144950         0.745962
 H        -0.900828        -0.051882        -0.470141
 H         1.395812        -2.245660        -0.059974
 H         1.072344        -1.505664        -1.708958
 H         3.938087        -1.798813        -1.437894
 H         4.237811        -0.700717         1.007641
 H         3.458443         1.928460        -0.573573
 H         5.009240         0.909178        -1.029936
 H         3.069839         0.254027        -2.861999
