19
Iteration:  4568
 C        -0.083979         0.148632         0.254238
 C         1.287952        -0.105683        -0.184287
 C         1.725774        -1.456123        -0.738451
 C         3.103703        -1.033863        -1.027568
 C         3.571231        -0.122587         0.208440
 C         3.946885         1.025849        -0.733947
 C         3.018466         0.285399        -1.727847
 O         1.682939         0.726040        -1.336187
 O         2.228093         0.125924         0.831931
 H        -0.264977        -0.469577         1.161606
 H        -0.409412         1.188371         0.447211
 H        -0.827535        -0.401170        -0.414491
 H         1.776478        -2.195152         0.128090
 H         0.991341        -1.685316        -1.422248
 H         3.829079        -1.760232        -1.477047
 H         4.308405        -0.588446         0.891433
 H         3.476965         2.037139        -0.516540
 H         5.014771         0.999305        -1.058693
 H         3.296988         0.605628        -2.743704
