19
Iteration:  2932charge 0 multiplicity 1
 C        -0.065217         0.129238         0.305595
 C         1.266491        -0.107168        -0.272600
 C         1.673504        -1.489715        -0.748312
 C         3.174927        -1.036120        -1.080111
 C         3.543704        -0.228524         0.226015
 C         3.971877         0.986396        -0.703922
 C         2.952472         0.429665        -1.725385
 O         1.610233         0.701295        -1.348657
 O         2.324980         0.195563         0.871062
 H        -0.159125        -0.279022         1.322356
 H        -0.382217         1.198083         0.313498
 H        -0.890845        -0.302520        -0.311980
 H         1.682141        -2.259937         0.014519
 H         1.173589        -1.746153        -1.638090
 H         3.787180        -2.037299        -1.215963
 H         4.343842        -0.506067         0.951404
 H         3.778018         1.918786        -0.186837
 H         4.902005         0.977751        -1.288258
 H         3.196580         0.743681        -2.800777
