19
Iteration:  4768charge 0 multiplicity 1
 C        -0.085601         0.161386         0.202046
 C         1.357869        -0.142937        -0.200576
 C         1.734804        -1.564475        -0.789351
 C         3.128066        -1.067117        -0.965691
 C         3.578904        -0.058131         0.266730
 C         4.019846         1.038395        -0.838279
 C         2.926961         0.348026        -1.685842
 O         1.555637         0.721881        -1.335009
 O         2.259337         0.127803         0.918260
 H        -0.415627        -0.175312         1.189527
 H        -0.199555         1.297162         0.279344
 H        -0.738137        -0.123589        -0.619904
 H         1.602044        -2.257941         0.011052
 H         0.952595        -1.817951        -1.628748
 H         3.936634        -1.502793        -1.537284
 H         4.259178        -0.400623         1.034237
 H         4.158679         1.980474        -0.354092
 H         4.956568         0.699534        -1.350149
 H         3.122313         0.383271        -2.684074
