19
Iteration:  1356
 C        -0.016855         0.064940         0.395760
 C         1.288252        -0.135660        -0.251591
 C         1.703248        -1.484847        -0.787953
 C         3.092082        -1.010886        -1.132984
 C         3.534102        -0.193474         0.168136
 C         4.005674         0.946908        -0.693589
 C         2.940135         0.441325        -1.727164
 O         1.635465         0.810099        -1.230112
 O         2.248553         0.124182         0.761953
 H         0.112584        -0.610315         1.370480
 H         0.072108         1.225889         0.569434
 H        -0.891807        -0.085350        -0.240575
 H         1.723846        -2.168547         0.068176
 H         0.966796        -1.760360        -1.513092
 H         3.835443        -1.707656        -1.587982
 H         4.257930        -0.476909         0.952490
 H         3.894133         1.970743        -0.301054
 H         4.900834         0.686300        -1.165841
 H         3.027817         0.700414        -2.776548
