19
Iteration:  3883charge 0 multiplicity 1
 C        -0.094884         0.142793         0.248338
 C         1.351474        -0.023905        -0.097687
 C         1.725055        -1.549978        -0.813105
 C         3.146994        -1.052459        -1.050540
 C         3.601895        -0.225454         0.233448
 C         3.875069         1.008484        -0.739632
 C         2.903003         0.350253        -1.690642
 O         1.638314         0.786696        -1.402700
 O         2.327530         0.114485         0.869295
 H        -0.458901        -0.308331         1.243693
 H        -0.244341         1.224977         0.526744
 H        -0.750157        -0.205083        -0.587499
 H         1.705475        -2.364300        -0.040275
 H         1.173793        -1.774565        -1.736286
 H         4.024734        -1.518298        -1.434240
 H         4.150694        -0.435031         1.174954
 H         3.511841         1.942636        -0.362292
 H         4.909559         1.048332        -1.040336
 H         3.031316         0.433942        -2.758079
