19
Iteration:   344
 C         0.014765         0.114712         0.401617
 C         1.363293        -0.116467        -0.153474
 C         1.666045        -1.448885        -0.753019
 C         3.050303        -0.996111        -1.193394
 C         3.579673        -0.258203         0.101808
 C         3.906207         0.982388        -0.640440
 C         2.919205         0.409482        -1.804388
 O         1.555400         0.752999        -1.303478
 O         2.402403         0.130955         0.861018
 H        -0.301895        -0.718065         0.997529
 H         0.104894         1.072068         0.943657
 H        -0.705596         0.321039        -0.474146
 H         1.891529        -2.347668        -0.116134
 H         0.857603        -1.574123        -1.542859
 H         3.628865        -1.750003        -1.671679
 H         4.208563        -0.784729         0.858198
 H         3.657470         1.856288        -0.004633
 H         4.974234         1.188864        -1.069475
 H         2.974603         0.611011        -2.811055
