19
Iteration:  2676
 C        -0.087693         0.126504         0.326066
 C         1.276964        -0.131447        -0.168224
 C         1.720789        -1.565285        -0.674892
 C         3.109365        -1.038883        -1.062028
 C         3.564695        -0.189805         0.191412
 C         3.968819         0.972236        -0.712883
 C         2.999186         0.502149        -1.756774
 O         1.612677         0.761590        -1.395308
 O         2.264676         0.148353         0.832015
 H        -0.067310        -0.113423         1.417349
 H         0.078949         1.225765         0.249302
 H        -0.869499        -0.223157        -0.412672
 H         1.719891        -2.321879         0.078017
 H         1.161377        -1.788626        -1.608300
 H         3.856742        -1.819459        -1.344235
 H         4.241428        -0.726120         0.905240
 H         3.817881         2.010370        -0.412351
 H         4.948122         0.803985        -1.143296
 H         3.052506         0.551087        -2.893783
