19
Iteration:  2249
 C        -0.064417         0.092178         0.351411
 C         1.353856        -0.119961        -0.296184
 C         1.665804        -1.506266        -0.725650
 C         3.091494        -1.010493        -1.060289
 C         3.491894        -0.176860         0.179757
 C         4.027541         0.961168        -0.759470
 C         3.005217         0.349797        -1.747247
 O         1.672547         0.776044        -1.234989
 O         2.218815         0.198786         0.785301
 H        -0.113985        -0.633606         1.159231
 H        -0.141574         1.090353         0.800309
 H        -0.872779        -0.035283        -0.363761
 H         1.713890        -2.078458         0.224619
 H         1.123655        -1.857720        -1.644129
 H         3.886676        -1.696855        -1.295638
 H         4.134633        -0.562049         0.994205
 H         3.742430         2.003366        -0.370322
 H         5.051212         0.776318        -1.215040
 H         2.963999         0.586167        -2.870124
