19
Iteration:   278charge 0 multiplicity 1
 C        -0.017446         0.093084         0.405218
 C         1.387766        -0.069452        -0.119668
 C         1.702076        -1.486768        -0.909790
 C         3.060487        -1.063108        -1.161730
 C         3.588685        -0.260398         0.153356
 C         3.898516         0.952102        -0.773765
 C         2.847940         0.405374        -1.725895
 O         1.626800         0.816308        -1.216121
 O         2.351556         0.188725         0.886310
 H        -0.263457        -0.636366         1.148585
 H        -0.224585         1.099063         0.856170
 H        -0.734367        -0.111895        -0.486869
 H         1.595501        -2.505430        -0.419106
 H         0.955146        -1.409024        -1.756733
 H         3.776265        -1.716255        -1.613201
 H         4.434741        -0.589289         0.816603
 H         3.910498         1.882077        -0.145221
 H         4.943617         0.847988        -1.247690
 H         2.945620         0.475111        -2.747060
