19
Iteration:   860
 C        -0.074127         0.214026         0.388705
 C         1.286546        -0.094295        -0.193204
 C         1.802305        -1.487278        -0.840202
 C         3.148684        -1.035114        -1.085643
 C         3.563972        -0.250160         0.141778
 C         3.961155         0.982477        -0.809703
 C         2.899134         0.434215        -1.755994
 O         1.521756         0.832075        -1.177786
 O         2.364176        -0.008545         0.843729
 H        -0.245828        -0.571050         1.045089
 H        -0.047263         1.153359         0.955518
 H        -0.839428         0.072362        -0.407706
 H         1.672911        -2.242837        -0.022017
 H         1.079993        -1.742986        -1.604926
 H         3.877690        -1.645561        -1.613985
 H         4.284094        -0.462314         0.903681
 H         3.818602         1.919330        -0.344848
 H         4.985564         0.782756        -1.270024
 H         2.794029         0.653747        -2.905886
