19
Iteration:  1583charge 0 multiplicity 1
 C        -0.023397         0.067193         0.365852
 C         1.262907        -0.061348        -0.289948
 C         1.721740        -1.506390        -0.772622
 C         3.108152        -1.070436        -1.057181
 C         3.485855        -0.170670         0.176910
 C         4.033311         0.921628        -0.727532
 C         2.863996         0.396389        -1.763010
 O         1.647662         0.908362        -1.239152
 O         2.293849         0.113025         0.809414
 H        -0.064902        -0.650535         1.121196
 H        -0.240810         0.989514         0.820641
 H        -0.889131        -0.151760        -0.019847
 H         1.512463        -2.232616         0.074392
 H         1.314680        -1.971844        -1.687860
 H         3.936695        -1.713856        -1.390666
 H         4.256745        -0.687205         0.770987
 H         4.040758         2.002441        -0.447046
 H         5.080974         0.907753        -1.186597
 H         3.160565         0.518584        -2.835033
