19
Iteration:   729charge 0 multiplicity 1
 C        -0.023892         0.135982         0.361143
 C         1.307795        -0.113135        -0.124437
 C         1.655671        -1.437009        -0.841440
 C         3.104703        -0.984006        -1.134733
 C         3.638497        -0.263714         0.163557
 C         3.972294         0.958514        -0.720750
 C         2.853969         0.456544        -1.663422
 O         1.544706         0.728853        -1.260413
 O         2.396273         0.086137         0.797652
 H        -0.148538        -0.649737         1.124216
 H        -0.113675         1.151479         0.823661
 H        -0.737482         0.307129        -0.437351
 H         1.526917        -2.332047        -0.178046
 H         1.127442        -1.484129        -1.804784
 H         3.834156        -1.596990        -1.702682
 H         4.327101        -0.647063         0.907359
 H         3.897315         1.929386        -0.388449
 H         4.950373         0.794099        -1.135047
 H         2.779967         0.707692        -2.744903
