19
Iteration:  3786charge 0 multiplicity 1
 C        -0.132013         0.140486         0.272683
 C         1.304274        -0.123780        -0.223676
 C         1.727677        -1.492818        -0.712588
 C         3.193437        -1.107503        -0.958744
 C         3.523690        -0.164534         0.151486
 C         3.948655         0.978829        -0.717748
 C         2.988148         0.416300        -1.788475
 O         1.629878         0.804781        -1.398288
 O         2.317241         0.116842         0.877417
 H        -0.441139        -0.643077         1.016245
 H        -0.147548         0.991130         0.919485
 H        -0.905176         0.028804        -0.460797
 H         1.641355        -2.281504         0.153690
 H         0.916805        -1.730927        -1.465751
 H         3.966986        -1.612939        -1.499448
 H         4.187604        -0.580763         0.982765
 H         3.523640         1.874710        -0.292351
 H         5.003682         1.126006        -0.893353
 H         3.065665         0.581176        -2.871767
