19
Iteration:  1810charge 0 multiplicity 1
 C        -0.068550         0.202430         0.369949
 C         1.356666        -0.043225        -0.292445
 C         1.774342        -1.525509        -0.689568
 C         3.128469        -0.995297        -1.104570
 C         3.551360        -0.233885         0.213122
 C         3.973705         0.954213        -0.692549
 C         2.894206         0.356443        -1.654025
 O         1.515033         0.843547        -1.390182
 O         2.314364         0.055083         0.793444
 H        -0.164694        -0.657373         1.064017
 H         0.031484         1.108918         0.967764
 H        -1.017783         0.205097        -0.441156
 H         1.912317        -2.186673         0.152086
 H         1.286727        -2.054790        -1.478140
 H         3.913918        -1.567443        -1.713321
 H         4.235045        -0.682473         0.979532
 H         3.665914         1.916186        -0.415042
 H         4.964037         0.822444        -1.080565
 H         3.182329         0.401157        -2.755255
