19
Iteration:  3361charge 0 multiplicity 1
 C        -0.034067         0.170729         0.294692
 C         1.282824        -0.039558        -0.227712
 C         1.673150        -1.546405        -0.756696
 C         3.172025        -1.051323        -0.981596
 C         3.565280        -0.165831         0.201210
 C         3.940318         1.034978        -0.720817
 C         2.994541         0.348607        -1.722374
 O         1.606417         0.715041        -1.427120
 O         2.302302         0.118429         0.880214
 H        -0.234589        -0.263674         1.261222
 H        -0.378959         1.153870         0.653918
 H        -0.918228        -0.128055        -0.280490
 H         1.510130        -2.353203        -0.059724
 H         1.279423        -1.883432        -1.690680
 H         3.976035        -1.646908        -1.493206
 H         4.146934        -0.559312         1.048544
 H         3.597335         1.935881        -0.175491
 H         4.983074         1.100801        -1.120910
 H         2.981204         0.554078        -2.901077
