19
Iteration:   134charge 0 multiplicity 1
 C        -0.112428         0.153096         0.447121
 C         1.295966        -0.153074        -0.176577
 C         1.690899        -1.440868        -0.856304
 C         3.158179        -1.045573        -1.066916
 C         3.672145        -0.228200         0.092800
 C         4.046662         1.013251        -0.752411
 C         2.905999         0.396944        -1.648964
 O         1.481171         0.780258        -1.211534
 O         2.376126         0.095695         0.744621
 H        -0.610779        -0.770685         0.873952
 H        -0.213595         1.034441         1.037304
 H        -0.743526         0.345761        -0.358131
 H         1.459060        -2.359752        -0.261380
 H         1.322288        -1.401591        -1.863060
 H         3.788238        -1.757398        -1.662894
 H         4.272754        -0.804334         0.845182
 H         3.825729         2.077773        -0.348630
 H         5.057548         0.993064        -1.056740
 H         2.845976         0.541223        -2.661787
