19
Iteration:   438
 C        -0.089089         0.096610         0.338270
 C         1.300405        -0.029549        -0.160181
 C         1.705696        -1.437189        -0.813403
 C         3.106973        -0.980117        -1.126195
 C         3.721742        -0.306444         0.208715
 C         4.003288         0.906740        -0.785381
 C         2.811349         0.422466        -1.613197
 O         1.489952         0.827402        -1.244786
 O         2.412780         0.087234         0.807948
 H        -0.182588        -0.586496         1.228438
 H        -0.447962         1.137945         0.562660
 H        -0.684056        -0.387330        -0.505251
 H         1.532850        -2.386600        -0.277909
 H         1.192247        -1.424053        -1.763754
 H         3.879142        -1.550836        -1.721237
 H         4.423193        -0.741069         1.006007
 H         4.027574         1.931846        -0.259445
 H         4.717602         0.985846        -1.518602
 H         2.981047         0.579985        -2.802199
