19
Iteration:  4817charge 0 multiplicity 1
 C        -0.064341         0.132518         0.306650
 C         1.255601        -0.087872        -0.201290
 C         1.730083        -1.436275        -0.636746
 C         3.112381        -1.049300        -1.051939
 C         3.662014        -0.190255         0.187897
 C         4.014034         1.026272        -0.675754
 C         2.992212         0.326392        -1.756272
 O         1.605933         0.676677        -1.456346
 O         2.211420         0.198700         0.831559
 H        -0.335371        -0.783131         0.852808
 H        -0.297255         0.854087         1.036206
 H        -0.782636         0.248615        -0.539510
 H         1.504334        -2.176776         0.223331
 H         1.128459        -1.818006        -1.636659
 H         3.779798        -1.845167        -1.395278
 H         4.243695        -0.449890         1.096521
 H         3.618214         2.016665        -0.331171
 H         5.084123         1.100698        -0.943885
 H         3.163391         0.451851        -2.906908
