19
Iteration:  4648charge 0 multiplicity 1
 C        -0.106101         0.128678         0.226460
 C         1.342863        -0.062713        -0.204164
 C         1.770272        -1.492767        -0.648834
 C         3.096765        -1.030417        -1.011158
 C         3.566170        -0.209243         0.296691
 C         3.901607         1.047506        -0.798704
 C         3.021002         0.359738        -1.752789
 O         1.631621         0.759448        -1.379544
 O         2.272449         0.077321         0.848062
 H        -0.410433        -0.715912         0.830789
 H        -0.284569         1.016958         0.795782
 H        -0.632492         0.316912        -0.678178
 H         1.701628        -2.066236         0.314045
 H         0.985077        -1.830799        -1.484308
 H         3.760931        -1.667976        -1.577067
 H         4.264596        -0.435572         1.116712
 H         3.542936         2.048827        -0.655532
 H         4.924901         1.007105        -1.140569
 H         3.181345         0.308471        -2.772177
