19
Iteration:  4816
 C        -0.069925         0.130619         0.304221
 C         1.246624        -0.077088        -0.195471
 C         1.726733        -1.444162        -0.639041
 C         3.118891        -1.051798        -1.059143
 C         3.665698        -0.191884         0.180606
 C         4.015667         1.028302        -0.673659
 C         2.997774         0.326281        -1.755978
 O         1.608062         0.678072        -1.458120
 O         2.213116         0.200514         0.840625
 H        -0.337507        -0.772542         0.858676
 H        -0.324639         0.870820         1.026823
 H        -0.792955         0.255998        -0.518293
 H         1.529697        -2.178981         0.239917
 H         1.110625        -1.872507        -1.661925
 H         3.795675        -1.855545        -1.415648
 H         4.253054        -0.438677         1.090027
 H         3.584662         2.020303        -0.361562
 H         5.087625         1.087461        -0.920019
 H         3.146023         0.446110        -2.867073
