19
Iteration:  3232charge 0 multiplicity 1
 C        -0.063113         0.237858         0.311794
 C         1.337641        -0.133334        -0.227744
 C         1.798867        -1.596326        -0.746105
 C         3.162731        -1.073391        -0.963274
 C         3.534094        -0.199928         0.193393
 C         3.941688         1.012829        -0.749225
 C         2.944149         0.469566        -1.691909
 O         1.547285         0.665404        -1.362355
 O         2.320881         0.180278         0.815827
 H        -0.622943        -0.616669         0.765022
 H        -0.232154         1.201843         0.917627
 H        -0.720497         0.421745        -0.603904
 H         1.460621        -2.378301        -0.028794
 H         1.214295        -1.679535        -1.699311
 H         3.933045        -1.808274        -1.441415
 H         4.102052        -0.448807         1.123497
 H         3.760495         2.023236        -0.401635
 H         4.999274         0.896404        -1.021521
 H         2.953252         0.508786        -2.852756
