19
Iteration:  1100charge 0 multiplicity 1
 C        -0.054315         0.127269         0.362918
 C         1.291043        -0.096059        -0.194853
 C         1.628610        -1.459647        -0.810710
 C         3.107824        -1.026992        -1.072150
 C         3.667431        -0.173499         0.161980
 C         4.078878         1.049492        -0.728936
 C         2.842969         0.424974        -1.682507
 O         1.535761         0.745815        -1.283278
 O         2.401252         0.048516         0.806100
 H        -0.284801        -0.804758         0.825170
 H        -0.159127         1.028910         0.950028
 H        -1.029878         0.122686        -0.378765
 H         1.581250        -2.280960        -0.112713
 H         0.978685        -1.526402        -1.708539
 H         3.720918        -1.786535        -1.629602
 H         4.301644        -0.476408         0.973229
 H         3.997593         2.000875        -0.306763
 H         5.042449         0.712585        -1.054945
 H         2.721445         0.417152        -2.814524
