19
Iteration:  1990
 C        -0.100979         0.090875         0.255044
 C         1.371241        -0.143086        -0.213915
 C         1.660301        -1.449426        -0.729017
 C         3.090833        -1.049134        -1.004827
 C         3.626549        -0.236363         0.205795
 C         4.039752         0.972617        -0.722655
 C         2.931106         0.431493        -1.640035
 O         1.507042         0.776411        -1.270390
 O         2.357470         0.163445         0.702755
 H        -0.336018        -0.640079         1.128666
 H        -0.237917         1.115150         0.808740
 H        -0.916240         0.048570        -0.570516
 H         1.480489        -2.170407         0.130770
 H         1.207181        -1.651228        -1.768570
 H         3.711074        -1.602064        -1.654365
 H         4.253366        -0.642860         1.014818
 H         4.094343         1.995724        -0.384828
 H         5.074275         0.950331        -1.140238
 H         3.018820         0.417583        -2.752197
