19
Iteration:  2115
 C        -0.107789         0.087779         0.355049
 C         1.270950        -0.069792        -0.263372
 C         1.731614        -1.409316        -0.816059
 C         3.171056        -1.035715        -1.032259
 C         3.622386        -0.230552         0.202974
 C         3.994020         0.900449        -0.723848
 C         2.952975         0.326811        -1.705665
 O         1.598824         0.847432        -1.287965
 O         2.247812         0.162878         0.778311
 H        -0.118392        -0.364320         1.361080
 H        -0.291063         1.112738         0.613217
 H        -0.950435        -0.291640        -0.168526
 H         1.769352        -2.175835         0.049970
 H         1.117089        -1.878665        -1.646324
 H         3.798220        -1.753341        -1.572849
 H         4.217127        -0.594419         1.054186
 H         3.891376         1.979237        -0.352753
 H         5.068330         0.811752        -1.075261
 H         2.935998         0.420640        -2.779176
