19
Iteration:  2238
 C        -0.064264         0.082903         0.322825
 C         1.231197        -0.060692        -0.234412
 C         1.750400        -1.452401        -0.702417
 C         3.147617        -1.090772        -1.067256
 C         3.564402        -0.164898         0.233596
 C         3.947285         0.954908        -0.773327
 C         2.970544         0.320112        -1.725237
 O         1.682565         0.869082        -1.282056
 O         2.224715         0.133619         0.750693
 H        -0.093085        -0.708307         1.072757
 H         0.025288         1.020077         0.902085
 H        -0.983278         0.037002        -0.184313
 H         1.607559        -2.294162         0.038213
 H         1.057722        -1.852111        -1.517263
 H         3.790692        -1.776743        -1.604140
 H         4.171344        -0.497526         1.101453
 H         3.815641         2.108743        -0.659306
 H         5.080377         0.812241        -0.882714
 H         3.051672         0.305417        -2.878924
