19
Iteration:  1445charge 0 multiplicity 1
 C        -0.108945         0.082322         0.473878
 C         1.332021        -0.035063        -0.265203
 C         1.747446        -1.413225        -0.733046
 C         3.129374        -1.046419        -1.123413
 C         3.531742        -0.271885         0.166094
 C         3.993248         0.966588        -0.740712
 C         2.970970         0.475862        -1.729429
 O         1.591277         0.792067        -1.338037
 O         2.271662         0.057117         0.831845
 H        -0.260222        -0.838718         1.098398
 H        -0.199597         1.090262         0.928707
 H        -0.870566         0.019019        -0.373264
 H         1.817981        -2.064524         0.122263
 H         1.191210        -1.707368        -1.586642
 H         3.842230        -1.697609        -1.704620
 H         4.121095        -0.686168         0.965079
 H         4.125644         2.009738        -0.485611
 H         4.895113         0.785882        -1.156103
 H         2.984873         0.666882        -2.753165
