19
Iteration:  3338
 C        -0.072287         0.113127         0.307215
 C         1.250197        -0.115637        -0.229377
 C         1.781987        -1.494174        -0.683607
 C         3.165812        -1.007091        -1.117453
 C         3.523141        -0.161083         0.237182
 C         3.951578         0.962441        -0.720762
 C         2.942894         0.344260        -1.726257
 O         1.653703         0.765163        -1.325286
 O         2.248204         0.137387         0.793694
 H        -0.294332         0.071651         1.360344
 H        -0.103504         1.246595         0.291092
 H        -0.992747        -0.118547        -0.177097
 H         1.746296        -2.274805         0.080902
 H         1.354576        -1.922165        -1.595303
 H         3.872515        -1.856475        -1.516836
 H         4.173556        -0.414983         1.112164
 H         3.748811         2.072757        -0.574538
 H         5.034607         0.668417        -0.864529
 H         3.115422         0.644148        -2.881637
