19
Iteration:  3599
 C        -0.055676         0.135210         0.299751
 C         1.326343        -0.085318        -0.238603
 C         1.716563        -1.468213        -0.769107
 C         3.169058        -1.011089        -1.024789
 C         3.568380        -0.198091         0.249060
 C         3.927979         0.991780        -0.697477
 C         2.925770         0.393135        -1.692762
 O         1.598045         0.671096        -1.361568
 O         2.291730         0.174551         0.798462
 H        -0.342727        -0.667158         0.925472
 H        -0.035529         1.019681         0.901605
 H        -0.670413         0.163646        -0.620843
 H         1.566846        -2.188734         0.118427
 H         1.167523        -1.748271        -1.753245
 H         3.821462        -1.725353        -1.464305
 H         4.209056        -0.254720         1.154548
 H         3.706496         1.991519        -0.371819
 H         4.915572         0.718010        -1.113933
 H         3.091304         0.334050        -2.745754
