19
Iteration:  2941
 C        -0.125171         0.184012         0.311669
 C         1.269315        -0.099648        -0.248130
 C         1.746759        -1.521721        -0.790110
 C         3.123205        -1.085387        -1.063838
 C         3.622372        -0.176938         0.259552
 C         3.900824         0.969391        -0.669432
 C         2.979240         0.376374        -1.689585
 O         1.563197         0.739222        -1.400092
 O         2.401864         0.176883         0.861582
 H        -0.289206        -0.359529         1.238986
 H        -0.358618         1.280405         0.423365
 H        -0.674007        -0.334743        -0.450925
 H         1.423157        -2.190591        -0.035743
 H         1.120556        -1.734150        -1.646374
 H         4.024864        -1.621755        -1.560972
 H         4.299630        -0.649612         1.045638
 H         3.647774         1.973430        -0.362139
 H         4.949283         0.927464        -0.996466
 H         2.828410         0.559990        -2.825611
