19
Iteration:  2083charge 0 multiplicity 1
 C        -0.080283         0.165369         0.234874
 C         1.319161        -0.147814        -0.129047
 C         1.709138        -1.474419        -0.719355
 C         3.077019        -0.992696        -1.103379
 C         3.579061        -0.237366         0.100290
 C         4.003179         0.971201        -0.694919
 C         2.941590         0.474140        -1.768008
 O         1.600558         0.721605        -1.315521
 O         2.267264         0.115776         0.917135
 H        -0.155200        -0.376021         1.182462
 H         0.005246         1.218166         0.419391
 H        -0.638912        -0.066952        -0.554402
 H         1.841285        -2.151525         0.143495
 H         1.012930        -1.805200        -1.495733
 H         3.784901        -1.724408        -1.517663
 H         4.167685        -0.784546         0.833848
 H         4.034948         2.031076        -0.223645
 H         5.063074         0.768694        -1.056479
 H         3.014240         0.652655        -2.865611
