19
Iteration:   537
 C        -0.152504         0.164782         0.413482
 C         1.322882        -0.112505        -0.198197
 C         1.754894        -1.518253        -0.713102
 C         3.135141        -0.964295        -1.194023
 C         3.576100        -0.246081         0.092496
 C         4.007374         0.912406        -0.740109
 C         2.900537         0.490602        -1.760931
 O         1.575279         0.871788        -1.247309
 O         2.316804         0.001178         0.843102
 H        -0.411360        -0.573034         1.138572
 H        -0.114131         1.116615         0.990654
 H        -0.973915         0.177693        -0.407709
 H         1.931096        -2.206833         0.125411
 H         1.071205        -2.005901        -1.375670
 H         3.848572        -1.671119        -1.625303
 H         4.376301        -0.803674         0.654447
 H         4.043981         1.948772        -0.319607
 H         4.993676         0.752886        -1.103308
 H         3.032627         0.840160        -2.871125
