19
Iteration:  2830charge 0 multiplicity 1
 C        -0.070403         0.223642         0.335307
 C         1.291783        -0.130527        -0.182654
 C         1.773193        -1.490821        -0.737458
 C         3.135348        -0.976341        -0.995277
 C         3.590826        -0.192822         0.237442
 C         3.998952         1.015250        -0.738851
 C         2.946503         0.336213        -1.737487
 O         1.554853         0.743972        -1.366834
 O         2.250112         0.050842         0.733230
 H        -0.492395        -0.520694         1.022765
 H         0.072551         1.103165         0.948980
 H        -0.762655         0.425743        -0.470461
 H         1.749339        -2.112912         0.077596
 H         1.044599        -1.949920        -1.412391
 H         3.862419        -1.605435        -1.339786
 H         4.293632        -0.537301         1.031647
 H         3.910044         2.073095        -0.445288
 H         5.010225         0.890022        -1.058572
 H         3.042032         0.359917        -2.860050
