19
Iteration:  2597
 C        -0.137282         0.187685         0.319276
 C         1.247471        -0.107602        -0.263176
 C         1.789325        -1.539473        -0.704962
 C         3.194162        -1.078857        -0.994979
 C         3.566060        -0.156415         0.245165
 C         3.937242         0.955158        -0.799912
 C         2.966129         0.387157        -1.778279
 O         1.578217         0.805953        -1.355046
 O         2.317449         0.138782         0.880673
 H        -0.451185        -0.667353         0.948200
 H         0.119910         0.966456         1.084308
 H        -0.876560         0.254390        -0.460513
 H         1.452161        -2.332339         0.005553
 H         1.304142        -1.707109        -1.664090
 H         3.969191        -1.828223        -1.426079
 H         4.233638        -0.678404         0.939566
 H         3.724297         1.960857        -0.484717
 H         4.943595         0.913738        -1.244868
 H         3.099339         0.495725        -2.849068
