19
Iteration:  3677charge 0 multiplicity 1
 C        -0.166633         0.105822         0.310501
 C         1.280598        -0.081936        -0.189231
 C         1.694205        -1.525081        -0.756551
 C         3.178544        -0.970188        -1.088285
 C         3.573177        -0.123723         0.266268
 C         3.997681         0.980078        -0.685651
 C         2.933227         0.328838        -1.721130
 O         1.622835         0.713232        -1.375674
 O         2.320936         0.164076         0.830934
 H        -0.199475        -0.511919         1.191934
 H        -0.313747         1.156172         0.478801
 H        -0.871898        -0.196579        -0.487516
 H         1.830467        -2.318850         0.078268
 H         1.097450        -1.664592        -1.732865
 H         3.932920        -1.600999        -1.538226
 H         4.174551        -0.581958         1.152809
 H         3.911330         2.062628        -0.492522
 H         4.949462         0.670894        -1.230334
 H         3.105515         0.644904        -2.799073
