19
Iteration:  1971
 C        -0.096253         0.106264         0.287739
 C         1.290244        -0.057474        -0.148693
 C         1.714942        -1.488771        -0.782621
 C         3.114260        -1.046875        -1.085933
 C         3.587940        -0.170609         0.202776
 C         3.981759         0.909459        -0.774570
 C         2.888723         0.400785        -1.778187
 O         1.638559         0.784195        -1.289204
 O         2.319040         0.136780         0.937600
 H        -0.448890        -0.476209         1.055658
 H        -0.384688         1.065128         0.569092
 H        -0.723410        -0.065017        -0.630747
 H         1.724812        -2.425717        -0.117302
 H         1.014886        -1.719321        -1.694919
 H         3.906912        -1.710331        -1.487262
 H         4.366266        -0.550857         0.878910
 H         3.915492         1.973972        -0.496204
 H         5.082159         0.882304        -1.185716
 H         3.052973         0.719871        -2.769089
