19
Iteration:  1022
 C         0.032971         0.153846         0.431246
 C         1.343377        -0.058927        -0.120467
 C         1.766690        -1.457540        -0.821403
 C         3.113564        -0.950176        -1.111352
 C         3.600629        -0.195387         0.149695
 C         3.992469         0.930019        -0.679351
 C         2.840997         0.383738        -1.795485
 O         1.509676         0.762364        -1.375336
 O         2.292826         0.025538         0.878927
 H        -0.182975        -0.311291         1.458527
 H        -0.196183         1.239616         0.709394
 H        -0.783495        -0.152738        -0.335571
 H         1.511955        -2.449830        -0.388451
 H         1.256378        -1.425928        -1.774693
 H         3.893564        -1.545994        -1.587124
 H         4.243690        -0.528786         0.940795
 H         3.816869         1.842411        -0.194349
 H         5.031267         0.740976        -1.109866
 H         2.885896         0.576971        -2.875067
