19
Iteration:  3414charge 0 multiplicity 1
 C        -0.150338         0.138923         0.226509
 C         1.228604        -0.161199        -0.263147
 C         1.765696        -1.564957        -0.680991
 C         3.163998        -0.994468        -1.007810
 C         3.572970        -0.109799         0.225375
 C         3.990050         0.965963        -0.790600
 C         2.974323         0.403403        -1.741746
 O         1.619435         0.796556        -1.305946
 O         2.289274         0.118737         0.855542
 H        -0.524032        -0.598518         0.927089
 H        -0.219528         1.007595         0.953114
 H        -0.969214         0.402868        -0.452173
 H         1.901091        -2.141335         0.274654
 H         1.134005        -2.040052        -1.484350
 H         3.823811        -1.774006        -1.546656
 H         4.261380        -0.547837         1.000451
 H         4.045360         2.026672        -0.377713
 H         4.993123         0.622737        -1.255716
 H         3.077654         0.526923        -2.909006
