19
Iteration:  4670
 C        -0.082767         0.156342         0.215749
 C         1.309982        -0.140223        -0.239395
 C         1.724788        -1.569904        -0.696024
 C         3.157514        -1.035938        -1.006269
 C         3.524525        -0.094768         0.183253
 C         3.982685         0.976496        -0.739704
 C         2.943849         0.368726        -1.755978
 O         1.628526         0.740386        -1.269406
 O         2.261485         0.165546         0.857056
 H        -0.423146        -0.507698         0.997256
 H        -0.192310         1.166892         0.577986
 H        -0.747623         0.204156        -0.613560
 H         1.605601        -2.360050         0.086330
 H         1.366673        -1.808270        -1.823827
 H         3.933988        -1.749824        -1.197954
 H         4.363017        -0.211733         0.864198
 H         3.781331         1.953059        -0.363504
 H         4.963498         0.790819        -1.145223
 H         2.987431         0.360476        -2.785078
