19
Iteration:   931charge 0 multiplicity 1
 C        -0.072430         0.096772         0.421902
 C         1.287228        -0.087789        -0.225300
 C         1.672478        -1.539537        -0.786298
 C         3.085628        -1.010252        -1.109501
 C         3.612654        -0.184742         0.175803
 C         4.032333         0.994766        -0.790958
 C         2.877656         0.398174        -1.672927
 O         1.581105         0.903910        -1.218026
 O         2.363017         0.032265         0.750703
 H        -0.393789        -0.796181         1.153267
 H        -0.027144         1.099486         0.957122
 H        -0.775211         0.114173        -0.437288
 H         1.702022        -2.364717        -0.052423
 H         1.065673        -1.842852        -1.696892
 H         3.868291        -1.675945        -1.521867
 H         4.329504        -0.673075         0.910240
 H         3.823800         2.021074        -0.433020
 H         4.984843         0.908051        -1.277814
 H         2.976434         0.488370        -2.740847
