19
Iteration:  3671
 C        -0.142798         0.117738         0.299091
 C         1.287278        -0.089364        -0.194529
 C         1.742744        -1.555790        -0.806295
 C         3.145015        -1.013048        -1.017149
 C         3.643831        -0.110996         0.319176
 C         3.977805         0.975431        -0.716632
 C         2.896863         0.366641        -1.775567
 O         1.579228         0.731476        -1.366221
 O         2.303911         0.176383         0.843700
 H        -0.434896        -0.488543         1.212811
 H        -0.209777         1.213847         0.543444
 H        -0.713885        -0.157065        -0.582526
 H         1.819608        -2.323215        -0.110234
 H         1.053827        -1.678213        -1.582039
 H         3.966904        -1.504131        -1.619390
 H         4.222357        -0.679143         0.980062
 H         3.992715         2.031730        -0.369628
 H         4.950781         0.608154        -1.051046
 H         3.217129         0.427756        -2.821305
