19
Iteration:  2943charge 0 multiplicity 1
 C        -0.135908         0.191973         0.308844
 C         1.289470        -0.092438        -0.239340
 C         1.750388        -1.521336        -0.795859
 C         3.117639        -1.086950        -1.050733
 C         3.632262        -0.169287         0.260196
 C         3.898082         0.969979        -0.666595
 C         2.968735         0.359510        -1.690946
 O         1.552138         0.746167        -1.401670
 O         2.404880         0.167346         0.856289
 H        -0.299190        -0.377499         1.239285
 H        -0.327714         1.275626         0.432736
 H        -0.704054        -0.326289        -0.493040
 H         1.434022        -2.220665        -0.049379
 H         1.149380        -1.732422        -1.623000
 H         4.042065        -1.552406        -1.651824
 H         4.279849        -0.659993         1.030111
 H         3.630815         1.983485        -0.398567
 H         4.966444         0.929984        -0.922625
 H         2.878777         0.508269        -2.808856
