19
Iteration:  4658charge 0 multiplicity 1
 C        -0.045394         0.148616         0.180500
 C         1.329168        -0.108168        -0.226657
 C         1.704695        -1.451376        -0.674472
 C         3.190609        -1.083411        -0.956849
 C         3.550573        -0.116850         0.226349
 C         3.936216         1.062551        -0.790214
 C         2.913206         0.319271        -1.756347
 O         1.636129         0.754833        -1.307084
 O         2.258856         0.084122         0.836967
 H        -0.336344        -0.708405         0.818013
 H         0.008130         1.043436         0.759548
 H        -0.687950         0.113013        -0.726662
 H         1.629495        -2.144231         0.236837
 H         0.979850        -1.940255        -1.452977
 H         3.944403        -1.795758        -1.348901
 H         4.077272        -0.652575         1.013971
 H         3.798447         2.112526        -0.526886
 H         5.008193         0.957075        -0.987473
 H         2.917591         0.606551        -2.756576
