19
Iteration:  4336charge 0 multiplicity 1
 C        -0.100739         0.177078         0.222012
 C         1.299650        -0.163888        -0.147757
 C         1.700215        -1.588312        -0.726631
 C         3.155593        -1.017869        -1.026862
 C         3.490503        -0.138898         0.196555
 C         4.006998         0.954626        -0.748685
 C         2.939305         0.477177        -1.756960
 O         1.646676         0.734251        -1.351976
 O         2.279820         0.156002         0.898253
 H        -0.175101        -0.164696         1.295608
 H        -0.147247         1.292922         0.135861
 H        -0.816172        -0.326315        -0.463123
 H         1.731975        -2.378436         0.040936
 H         0.995869        -1.659719        -1.502285
 H         3.962873        -1.638784        -1.472473
 H         4.204537        -0.574130         0.934928
 H         3.973114         1.948091        -0.273936
 H         4.996311         0.669008        -1.166430
 H         3.155978         0.451864        -2.871997
