19
Iteration:   365
 C        -0.069662         0.233396         0.504979
 C         1.273775        -0.116352        -0.115077
 C         1.683202        -1.520898        -0.862256
 C         3.138100        -1.024603        -1.059431
 C         3.671879        -0.214128         0.137202
 C         3.964038         1.015409        -0.779530
 C         2.913356         0.517500        -1.686331
 O         1.501769         0.719925        -1.376020
 O         2.377143        -0.041338         0.832517
 H        -0.277891        -0.521656         1.171873
 H        -0.133022         1.265528         0.828331
 H        -0.772521         0.198594        -0.386415
 H         1.475013        -2.401905        -0.228933
 H         1.160175        -1.402242        -1.807010
 H         3.841825        -1.529547        -1.668285
 H         4.356866        -0.606632         0.953865
 H         3.890960         2.063036        -0.391906
 H         5.025685         0.890403        -1.223127
 H         3.079385         0.755127        -2.690054
