19
Iteration:  2074charge 0 multiplicity 1
 C        -0.088359         0.219187         0.242392
 C         1.324139        -0.151546        -0.136579
 C         1.748729        -1.455115        -0.758911
 C         3.129748        -0.998886        -1.168558
 C         3.601536        -0.250371         0.216526
 C         3.983124         0.946522        -0.723320
 C         2.905028         0.384889        -1.725211
 O         1.571370         0.736683        -1.246479
 O         2.307355         0.135247         0.855373
 H        -0.507865        -0.415849         1.104599
 H        -0.157174         1.344187         0.407186
 H        -0.749028        -0.022457        -0.552764
 H         1.718614        -2.257650        -0.078713
 H         1.122941        -1.728942        -1.543917
 H         3.868484        -1.682513        -1.557142
 H         4.316130        -0.636249         0.959906
 H         3.618798         1.888304        -0.221559
 H         4.945306         0.927512        -1.242284
 H         3.124585         0.556689        -2.833647
