19
Iteration:  4324
 C        -0.086146         0.209338         0.215522
 C         1.353069        -0.129340        -0.156515
 C         1.810280        -1.433391        -0.705334
 C         3.123534        -1.009760        -1.100420
 C         3.588639        -0.241877         0.208657
 C         3.908796         0.931656        -0.738299
 C         2.952403         0.332983        -1.713049
 O         1.599955         0.724727        -1.280766
 O         2.246553         0.186607         0.850207
 H        -0.519395        -0.117768         1.222019
 H        -0.414449         1.273748         0.106146
 H        -0.718989        -0.402187        -0.503535
 H         1.605048        -2.281894        -0.118380
 H         1.354545        -1.712076        -1.607289
 H         3.963860        -1.713488        -1.335123
 H         4.258316        -0.774689         0.923396
 H         3.712906         1.975710        -0.444929
 H         4.976202         0.891209        -1.123298
 H         3.038516         0.626894        -2.816377
