19
Iteration:  4597
 C        -0.077500         0.156950         0.305328
 C         1.266984        -0.154275        -0.249093
 C         1.796877        -1.583712        -0.769696
 C         3.135460        -1.016584        -0.950911
 C         3.591995        -0.086281         0.239268
 C         4.015847         0.954290        -0.677525
 C         2.894667         0.350183        -1.709977
 O         1.585567         0.773039        -1.425931
 O         2.237818         0.174074         0.804926
 H        -0.260015        -0.625702         1.074772
 H        -0.043236         1.192613         0.791853
 H        -0.899300         0.176040        -0.448060
 H         1.749631        -2.230831         0.051581
 H         1.135065        -1.864114        -1.643977
 H         3.907602        -1.545046        -1.434979
 H         4.259223        -0.496053         1.033109
 H         3.931721         1.989130        -0.329041
 H         4.985958         0.560751        -1.052969
 H         3.169690         0.505917        -2.823799
