19
Iteration:  2110charge 0 multiplicity 1
 C        -0.127921         0.110452         0.372231
 C         1.256630        -0.081422        -0.263274
 C         1.723632        -1.463766        -0.759044
 C         3.132226        -1.030435        -1.081894
 C         3.618598        -0.199836         0.239535
 C         4.000181         0.895183        -0.723121
 C         2.977633         0.389543        -1.713452
 O         1.593052         0.855553        -1.318794
 O         2.271590         0.109364         0.774860
 H         0.074642        -0.402874         1.332542
 H        -0.297081         1.188825         0.640179
 H        -0.880134        -0.398489        -0.433415
 H         1.764194        -2.045356         0.152744
 H         1.060374        -1.877543        -1.527548
 H         3.849035        -1.723419        -1.550073
 H         4.121800        -0.552813         1.146222
 H         3.999152         1.907344        -0.429523
 H         4.988981         0.809765        -1.133543
 H         3.117066         0.484813        -2.815259
