19
Iteration:  3229charge 0 multiplicity 1
 C        -0.062673         0.232893         0.292592
 C         1.350095        -0.152039        -0.217270
 C         1.768549        -1.592816        -0.734459
 C         3.166207        -1.050926        -0.983232
 C         3.553024        -0.211630         0.183923
 C         3.949189         1.015283        -0.739254
 C         2.938499         0.452546        -1.686038
 O         1.545959         0.676120        -1.363474
 O         2.307161         0.185673         0.812020
 H        -0.583555        -0.614155         0.765121
 H        -0.151350         1.164646         0.911671
 H        -0.648081         0.436575        -0.592865
 H         1.479747        -2.334685        -0.024974
 H         1.252090        -1.671330        -1.646115
 H         3.950997        -1.781186        -1.337887
 H         4.146102        -0.444113         1.081738
 H         3.701737         2.032215        -0.382086
 H         4.989861         0.911139        -0.975287
 H         2.867317         0.451147        -2.837182
