19
Iteration:  1312charge 0 multiplicity 1
 C        -0.023419         0.105524         0.318246
 C         1.331433        -0.155341        -0.153342
 C         1.635204        -1.435707        -0.757278
 C         3.058798        -1.016821        -1.148479
 C         3.591477        -0.160597         0.163491
 C         3.990740         0.977446        -0.753809
 C         2.940109         0.449361        -1.748345
 O         1.629246         0.722398        -1.251526
 O         2.342629         0.108760         0.857165
 H        -0.488336        -0.765639         1.017287
 H        -0.251731         1.141205         0.852247
 H        -0.747014         0.192562        -0.539883
 H         1.621251        -2.275033        -0.064707
 H         1.064790        -1.679403        -1.632446
 H         3.721281        -1.714725        -1.674341
 H         4.232332        -0.568052         0.964154
 H         3.729387         1.996985        -0.321987
 H         5.028191         0.772605        -0.977849
 H         2.860622         0.695274        -2.821066
