19
Iteration:  2847
 C        -0.119572         0.226979         0.304462
 C         1.320487        -0.103632        -0.280305
 C         1.770629        -1.517755        -0.650468
 C         3.185352        -1.064278        -1.106865
 C         3.540312        -0.218731         0.161269
 C         3.916943         0.949471        -0.731205
 C         2.913143         0.407713        -1.739208
 O         1.627154         0.739508        -1.329063
 O         2.282856         0.160169         0.894975
 H        -0.317792        -0.555706         1.051402
 H        -0.044842         1.236471         0.757217
 H        -0.818506         0.137888        -0.567985
 H         1.651275        -2.314333         0.210672
 H         1.306156        -1.931825        -1.572294
 H         3.941158        -1.862790        -1.560943
 H         4.300413        -0.572484         0.884650
 H         3.633226         1.973967        -0.374593
 H         5.010066         0.934775        -1.071673
 H         3.056425         0.664321        -2.767644
