19
Iteration:  4381
 C        -0.068527         0.113158         0.343144
 C         1.346381        -0.077251        -0.189464
 C         1.717075        -1.533864        -0.794061
 C         3.076328        -1.094643        -1.046435
 C         3.567838        -0.167126         0.269507
 C         3.937418         0.987583        -0.686153
 C         2.954704         0.334069        -1.792063
 O         1.657649         0.758298        -1.411126
 O         2.249413         0.246607         0.845969
 H        -0.279133        -0.567978         1.190261
 H        -0.048141         1.188638         0.680023
 H        -0.762564        -0.095774        -0.473885
 H         1.537887        -2.285488         0.061347
 H         1.343494        -1.756450        -1.761516
 H         3.893805        -1.741481        -1.238963
 H         4.284914        -0.621009         0.991450
 H         3.551688         1.976925        -0.427407
 H         5.001775         0.805435        -0.825406
 H         3.193910         0.541347        -2.875805
