19
Iteration:  1142charge 0 multiplicity 1
 C         0.062684         0.135591         0.437492
 C         1.302124        -0.050154        -0.230414
 C         1.727573        -1.468844        -0.783944
 C         3.083699        -1.011773        -1.205921
 C         3.510727        -0.187625         0.197774
 C         3.955910         1.025346        -0.658393
 C         2.920379         0.405174        -1.811507
 O         1.589656         0.765915        -1.308735
 O         2.288599         0.006695         0.867885
 H        -0.119013        -0.486911         1.291055
 H         0.021936         1.189516         0.724590
 H        -0.823415         0.077524        -0.338731
 H         1.684277        -2.091653         0.155022
 H         1.131700        -1.961143        -1.564275
 H         3.854013        -1.642486        -1.727900
 H         4.308797        -0.663410         0.796561
 H         3.893000         1.978552        -0.192868
 H         4.929059         0.784472        -1.003300
 H         2.914672         0.541529        -2.893968
