19
Iteration:  4089charge 0 multiplicity 1
 C        -0.135116         0.190069         0.275635
 C         1.344714        -0.148279        -0.183533
 C         1.730386        -1.580241        -0.784045
 C         3.176860        -1.031348        -1.106777
 C         3.544427        -0.149322         0.223951
 C         3.979013         0.949812        -0.759720
 C         2.956391         0.420679        -1.720730
 O         1.613841         0.759175        -1.296602
 O         2.259717         0.185327         0.902420
 H        -0.362299        -0.415892         1.229726
 H        -0.319792         1.302073         0.450655
 H        -0.707388        -0.267508        -0.549544
 H         1.547993        -2.371787        -0.076247
 H         1.164655        -2.082560        -1.635323
 H         3.971595        -1.651283        -1.516232
 H         4.198506        -0.334842         1.077263
 H         3.955592         2.052440        -0.529691
 H         5.051677         0.715195        -1.144366
 H         2.968926         0.391307        -2.797179
