19
Iteration:  4758
 C        -0.127798         0.181298         0.236282
 C         1.254528        -0.151398        -0.188453
 C         1.730305        -1.548705        -0.744867
 C         3.137371        -1.003460        -1.030386
 C         3.563940        -0.095785         0.294709
 C         3.990031         0.998793        -0.780575
 C         2.947305         0.376174        -1.729831
 O         1.620120         0.699306        -1.371580
 O         2.339152         0.137352         0.910746
 H        -0.376438        -0.281533         1.190059
 H        -0.320590         1.277979         0.162698
 H        -0.828647        -0.304796        -0.414488
 H         1.566606        -2.398640        -0.069315
 H         1.116790        -1.643481        -1.814243
 H         3.944820        -1.702832        -1.243021
 H         4.274784        -0.368617         1.076708
 H         3.951140         2.088378        -0.674645
 H         4.959044         0.682853        -1.235469
 H         3.024827         0.441960        -2.747007
