19
Iteration:  3094charge 0 multiplicity 1
 C        -0.089985         0.219586         0.263977
 C         1.343577        -0.176450        -0.098527
 C         1.768432        -1.518033        -0.774306
 C         3.144260        -0.977763        -1.023995
 C         3.526654        -0.169092         0.179114
 C         3.938361         0.982514        -0.716579
 C         2.958165         0.346017        -1.761667
 O         1.621748         0.696107        -1.344911
 O         2.279921         0.160725         0.862131
 H        -0.224658        -0.117649         1.276660
 H        -0.091000         1.289093         0.129801
 H        -0.879455        -0.219005        -0.378032
 H         1.577545        -2.381692        -0.101924
 H         1.040955        -1.527804        -1.629952
 H         3.800749        -1.832739        -1.350267
 H         4.216608        -0.808171         0.781942
 H         3.680371         2.001013        -0.396228
 H         5.006447         0.928144        -1.073604
 H         2.981604         0.737303        -2.811464
