19
Iteration:  1895
 C        -0.068594         0.184339         0.402768
 C         1.260448        -0.088428        -0.184390
 C         1.714362        -1.571926        -0.746341
 C         3.124671        -0.985821        -1.151324
 C         3.535996        -0.237615         0.205486
 C         4.000870         0.928227        -0.679884
 C         2.972580         0.478539        -1.761572
 O         1.588288         0.706918        -1.357022
 O         2.304858         0.162523         0.786513
 H        -0.147715        -0.351926         1.281855
 H        -0.251543         1.181734         0.629006
 H        -0.846029        -0.107428        -0.350996
 H         1.903530        -2.156472         0.200215
 H         1.025628        -1.964053        -1.575389
 H         3.795873        -1.699650        -1.653495
 H         4.173158        -0.606501         1.030371
 H         3.886838         1.938641        -0.232027
 H         5.144938         0.994107        -0.895565
 H         3.145208         0.633534        -2.793807
