19
Iteration:  4106
 C        -0.118771         0.115717         0.240114
 C         1.289768        -0.087236        -0.146834
 C         1.798910        -1.425710        -0.724690
 C         3.124099        -0.991609        -1.032274
 C         3.569159        -0.167847         0.250193
 C         3.983380         0.940268        -0.733904
 C         2.916685         0.323356        -1.751517
 O         1.574086         0.740745        -1.325463
 O         2.317237         0.129885         0.829789
 H        -0.387940        -0.234311         1.189320
 H        -0.249343         1.152269         0.102428
 H        -0.870263        -0.180559        -0.471040
 H         1.899717        -2.356979        -0.072796
 H         1.150751        -1.562853        -1.633866
 H         3.878454        -1.626991        -1.474640
 H         4.259080        -0.738156         0.890792
 H         3.875644         1.935314        -0.376482
 H         4.964337         0.787657        -1.097144
 H         3.065569         0.672170        -2.799066
