19
Iteration:  1349charge 0 multiplicity 1
 C        -0.065871         0.074259         0.423280
 C         1.321544        -0.111091        -0.256799
 C         1.722802        -1.476523        -0.791747
 C         3.116634        -1.016357        -1.111097
 C         3.560271        -0.171889         0.222369
 C         3.976765         0.863343        -0.710462
 C         2.909409         0.451036        -1.732640
 O         1.578168         0.833574        -1.257083
 O         2.307773         0.119943         0.741658
 H        -0.117548        -0.527306         1.259319
 H        -0.054551         1.089152         0.685437
 H        -0.849378        -0.126444        -0.272274
 H         1.628567        -2.157932         0.065648
 H         1.214618        -1.832905        -1.713488
 H         3.738641        -1.701337        -1.725684
 H         4.257377        -0.397401         1.019191
 H         3.952794         1.847591        -0.166543
 H         5.074940         0.764909        -1.127389
 H         3.084260         0.695584        -2.759857
