19
Iteration:  4802charge 0 multiplicity 1
 C        -0.257171         0.146479         0.305225
 C         1.343812        -0.039371        -0.216753
 C         1.718589        -1.556132        -0.680856
 C         3.182854        -1.064995        -1.047377
 C         3.547488        -0.170037         0.198333
 C         3.929710         0.996062        -0.735598
 C         3.023511         0.338889        -1.745427
 O         1.653845         0.734594        -1.409439
 O         2.302893         0.204745         0.872444
 H        -0.498424        -0.687909         0.963975
 H        -0.174762         1.137915         0.825163
 H        -0.888163         0.134281        -0.557310
 H         1.963578        -2.180123         0.180282
 H         1.011215        -2.181481        -1.424574
 H         3.929296        -1.708836        -1.562143
 H         4.280427        -0.624542         0.862989
 H         3.646896         1.995604        -0.348497
 H         4.992459         1.062937        -1.008855
 H         3.172127         0.476905        -2.737096
