19
Iteration:  4701charge 0 multiplicity 1
 C        -0.097344         0.146352         0.318862
 C         1.283088        -0.105392        -0.241196
 C         1.760215        -1.446597        -0.709584
 C         3.201953        -1.023615        -1.042763
 C         3.542234        -0.186262         0.204705
 C         4.036301         0.971636        -0.668549
 C         2.961804         0.402624        -1.723284
 O         1.552763         0.654975        -1.406227
 O         2.228785         0.183323         0.816811
 H        -0.121967        -0.257030         1.353845
 H        -0.245954         1.230693         0.357705
 H        -0.822264        -0.294958        -0.433647
 H         1.551694        -2.203030         0.080421
 H         1.237027        -1.755872        -1.615571
 H         4.002648        -1.750129        -1.228720
 H         4.184025        -0.450905         1.051784
 H         4.026308         1.995708        -0.264201
 H         4.996997         0.798143        -1.202663
 H         3.030235         0.430845        -2.795574
