19
Iteration:   671charge 0 multiplicity 1
 C        -0.032153         0.082308         0.373614
 C         1.320897        -0.122228        -0.114390
 C         1.605603        -1.427317        -0.848493
 C         3.126247        -1.046016        -1.120476
 C         3.594683        -0.256536         0.179202
 C         3.996453         0.987777        -0.789095
 C         2.929255         0.416347        -1.711747
 O         1.550809         0.840068        -1.259338
 O         2.374965         0.092834         0.857316
 H        -0.403506        -0.767905         1.042649
 H         0.105423         0.946233         1.012872
 H        -0.709295         0.078913        -0.451497
 H         1.365597        -2.351279        -0.322763
 H         1.024434        -1.451201        -1.805230
 H         3.782326        -1.813001        -1.530899
 H         4.396348        -0.408316         0.928507
 H         3.829034         1.952680        -0.388041
 H         4.996490         0.934670        -1.247344
 H         2.917369         0.603455        -2.888756
