19
Iteration:  3999charge 0 multiplicity 1
 C        -0.135610         0.210819         0.255468
 C         1.249422        -0.109744        -0.244743
 C         1.761114        -1.580071        -0.693165
 C         3.204605        -1.050886        -1.027067
 C         3.542788        -0.196943         0.211857
 C         3.925311         0.956486        -0.764662
 C         2.952461         0.501321        -1.747790
 O         1.602458         0.788410        -1.330581
 O         2.285282         0.109703         0.880191
 H        -0.314149        -0.568456         0.999375
 H         0.022864         0.993636         0.975597
 H        -0.865107         0.170478        -0.596298
 H         1.819531        -2.410565         0.087041
 H         1.483645        -2.131383        -1.693363
 H         4.015942        -1.650334        -1.410036
 H         4.280480        -0.486795         0.975373
 H         3.971304         2.008234        -0.426179
 H         4.969254         0.671507        -1.167123
 H         3.011483         0.528504        -2.880733
