19
Iteration:  3370
 C        -0.085205         0.144297         0.305330
 C         1.308641        -0.079396        -0.257077
 C         1.656303        -1.528718        -0.736056
 C         3.121511        -1.057048        -1.032707
 C         3.599755        -0.157065         0.243116
 C         3.932582         1.051464        -0.685044
 C         2.918504         0.365023        -1.697308
 O         1.617164         0.680299        -1.417116
 O         2.330083         0.143097         0.857663
 H        -0.095203        -0.486383         1.213411
 H         0.015127         1.260631         0.492653
 H        -0.793833        -0.007360        -0.490831
 H         1.405261        -2.351501        -0.027285
 H         1.260675        -1.618542        -1.787189
 H         3.863461        -1.874004        -1.420795
 H         4.405948        -0.405703         0.979309
 H         3.613835         2.134089        -0.457896
 H         5.054167         1.020154        -0.924572
 H         3.293213         0.549205        -2.773622
