19
Iteration:  3722charge 0 multiplicity 1
 C        -0.093803         0.143585         0.291935
 C         1.284248        -0.092067        -0.245506
 C         1.797153        -1.485563        -0.761916
 C         3.116036        -1.026254        -1.063760
 C         3.550370        -0.174694         0.244313
 C         3.919359         0.961702        -0.738272
 C         2.968524         0.390475        -1.636572
 O         1.602131         0.751055        -1.356583
 O         2.293165         0.134780         0.814712
 H        -0.084497        -0.312542         1.293992
 H        -0.392160         1.180686         0.322263
 H        -0.743525        -0.422159        -0.310384
 H         1.709437        -2.208140         0.106343
 H         1.151986        -1.633772        -1.638658
 H         3.902026        -1.594873        -1.603096
 H         4.330727        -0.551534         0.965766
 H         3.656610         1.953658        -0.317993
 H         5.004363         0.805675        -0.978598
 H         3.242286         0.267134        -2.719350
