19
Iteration:  2185charge 0 multiplicity 1
 C        -0.079127         0.248935         0.284607
 C         1.297063        -0.135531        -0.189034
 C         1.778214        -1.628435        -0.742683
 C         3.106967        -1.077087        -1.151038
 C         3.625100        -0.195854         0.222508
 C         3.916204         0.938358        -0.686585
 C         2.902128         0.425491        -1.696881
 O         1.586271         0.793690        -1.270166
 O         2.294720         0.162551         0.767083
 H        -0.596603        -0.449890         1.017960
 H         0.081969         1.271724         0.743451
 H        -0.632999         0.291435        -0.756149
 H         1.813515        -2.266921         0.154934
 H         1.174865        -2.187786        -1.447263
 H         3.937550        -1.679988        -1.521910
 H         4.279633        -0.521630         1.055279
 H         3.834385         1.985541        -0.271052
 H         4.968864         1.005192        -1.068189
 H         3.087582         0.602688        -2.814677
