19
Iteration:  4931
 C        -0.071219         0.179750         0.285497
 C         1.281211        -0.150079        -0.243868
 C         1.727698        -1.573369        -0.725721
 C         3.102750        -1.032087        -1.058529
 C         3.511327        -0.115876         0.309678
 C         4.103651         0.970916        -0.724943
 C         2.947265         0.440365        -1.701706
 O         1.606960         0.686614        -1.423662
 O         2.216429         0.151391         0.822767
 H         0.111546        -0.048188         1.363194
 H        -0.325634         1.304937         0.280438
 H        -0.986279        -0.255297        -0.114152
 H         1.710818        -2.245750         0.112238
 H         1.197224        -1.870969        -1.530824
 H         3.943506        -1.688763        -1.436534
 H         4.322186        -0.304455         1.054535
 H         4.038885         2.032365        -0.428221
 H         5.108263         0.661461        -1.008232
 H         3.073699         0.628988        -2.833277
