19
Iteration:  4690charge 0 multiplicity 1
 C        -0.153870         0.179521         0.299788
 C         1.294350        -0.130469        -0.146996
 C         1.750000        -1.506471        -0.780275
 C         3.254435        -1.013457        -1.048055
 C         3.546953        -0.162570         0.322646
 C         4.044878         0.993953        -0.767253
 C         2.909114         0.310702        -1.691151
 O         1.589192         0.708153        -1.397818
 O         2.243824         0.207187         0.816340
 H        -0.494612        -0.350116         1.231043
 H        -0.314246         1.253262         0.455069
 H        -0.975730        -0.116133        -0.439887
 H         1.997893        -2.356128        -0.096005
 H         1.165413        -1.771771        -1.671473
 H         4.045365        -1.673166        -1.488777
 H         4.113642        -0.790629         1.022041
 H         3.864390         2.065018        -0.582961
 H         5.060845         0.720605        -1.137833
 H         3.063918         0.582696        -2.715729
