19
Iteration:   166
 C        -0.022649         0.076715         0.375462
 C         1.352357        -0.066946        -0.185211
 C         1.750520        -1.457039        -0.720439
 C         3.060754        -0.951974        -1.176668
 C         3.516602        -0.260758         0.100014
 C         4.045072         0.897269        -0.774022
 C         2.883790         0.494722        -1.745534
 O         1.578663         0.817320        -1.264063
 O         2.271215         0.108756         0.896095
 H        -0.140029        -0.889088         0.964826
 H        -0.206938         0.793498         1.122491
 H        -0.641431        -0.009237        -0.420112
 H         1.842341        -2.200234         0.072138
 H         1.157587        -1.835861        -1.521653
 H         3.786848        -1.562938        -1.783094
 H         4.158513        -0.977211         0.680032
 H         4.063937         2.013573        -0.332160
 H         5.028708         0.519240        -1.079635
 H         2.917696         0.817196        -2.761699
