19
Iteration:  1016
 C         0.004614         0.160638         0.479386
 C         1.322454        -0.064159        -0.159785
 C         1.749129        -1.530449        -0.834451
 C         3.107378        -0.932060        -1.155012
 C         3.569084        -0.210741         0.168755
 C         3.972415         0.918546        -0.703348
 C         2.907901         0.408303        -1.760082
 O         1.539939         0.757102        -1.340094
 O         2.296790         0.073314         0.851500
 H        -0.074696        -0.224923         1.442750
 H        -0.153801         1.192596         0.653894
 H        -0.636593        -0.152656        -0.344390
 H         1.605574        -2.491327        -0.348114
 H         1.048552        -1.622345        -1.720325
 H         3.813316        -1.533574        -1.757887
 H         4.298971        -0.530473         0.945073
 H         3.747013         1.937435        -0.146200
 H         5.102549         0.910508        -0.911465
 H         2.870621         0.486598        -2.886216
