19
Iteration:  4423
 C        -0.127352         0.221477         0.269080
 C         1.282753        -0.157131        -0.252795
 C         1.826062        -1.565324        -0.684805
 C         3.185231        -1.038833        -0.958939
 C         3.548198        -0.137903         0.198104
 C         3.982966         0.918872        -0.762739
 C         2.958081         0.377526        -1.752451
 O         1.564606         0.852045        -1.353924
 O         2.272025         0.122528         0.870773
 H        -0.761972        -0.626943         0.721279
 H        -0.320884         1.179522         0.893671
 H        -0.682683         0.221171        -0.704506
 H         1.853050        -2.226702         0.146436
 H         1.386374        -2.081664        -1.450906
 H         3.761547        -1.804265        -1.472653
 H         4.280291        -0.533182         0.958512
 H         3.813303         1.924778        -0.288222
 H         4.994495         0.741830        -1.300156
 H         3.025918         0.454757        -2.900972
