19
Iteration:    63charge 0 multiplicity 1
 C        -0.067404         0.141172         0.418507
 C         1.337546        -0.131047        -0.134742
 C         1.696830        -1.451700        -0.906156
 C         3.114966        -1.027832        -1.138115
 C         3.626783        -0.257455         0.170683
 C         3.984523         0.951178        -0.708026
 C         2.909007         0.425830        -1.683655
 O         1.437761         0.751877        -1.259787
 O         2.428446         0.141319         0.866213
 H        -0.464192        -0.258510         1.327483
 H        -0.167744         1.247018         0.336554
 H        -0.797795        -0.165958        -0.399983
 H         1.552314        -2.407912        -0.422660
 H         1.290206        -1.339766        -1.924908
 H         3.751612        -1.620283        -1.786853
 H         4.321983        -0.596896         0.934943
 H         4.057461         1.938271        -0.337855
 H         5.003483         0.701574        -1.261159
 H         2.972394         0.668581        -2.844557
