19
Iteration:  4217
 C        -0.165654         0.158434         0.239214
 C         1.335490        -0.088584        -0.222135
 C         1.744803        -1.542661        -0.683345
 C         3.097579        -1.073413        -1.050183
 C         3.533554        -0.188442         0.248465
 C         3.895003         0.981472        -0.763448
 C         3.029062         0.408582        -1.783990
 O         1.622072         0.774380        -1.377763
 O         2.342885         0.147447         0.930662
 H        -0.437524        -0.768252         0.752484
 H        -0.281804         0.985409         0.909835
 H        -0.792259         0.244415        -0.616395
 H         2.056196        -2.035678         0.300593
 H         1.165432        -1.848621        -1.516621
 H         3.770896        -1.667972        -1.674399
 H         4.299633        -0.500500         1.000714
 H         3.674830         1.970709        -0.433258
 H         4.931382         0.785885        -0.952847
 H         3.143282         0.483792        -2.895277
