19
Iteration:  4433
 C        -0.100835         0.184920         0.204524
 C         1.294939        -0.106437        -0.201136
 C         1.799304        -1.607400        -0.655839
 C         3.153747        -1.057069        -1.072623
 C         3.509532        -0.164417         0.279984
 C         3.987935         0.939924        -0.794277
 C         2.952068         0.340631        -1.738529
 O         1.549744         0.853216        -1.314017
 O         2.262557         0.125751         0.833219
 H        -0.516397        -0.671077         0.853974
 H         0.050381         1.148768         0.815053
 H        -0.684443         0.498463        -0.701459
 H         2.060950        -2.194374         0.115960
 H         1.234571        -2.023240        -1.450398
 H         4.070769        -1.582199        -1.445381
 H         4.202668        -0.171543         1.147639
 H         3.849285         2.025197        -0.497417
 H         5.087529         0.624282        -1.020356
 H         3.086321         0.580224        -2.855042
