19
Iteration:  3916charge 0 multiplicity 1
 C        -0.095216         0.142585         0.321222
 C         1.314045        -0.135841        -0.212845
 C         1.730609        -1.594798        -0.773277
 C         3.099715        -1.042865        -1.071331
 C         3.509442        -0.138236         0.225792
 C         3.997854         0.992846        -0.726871
 C         2.970906         0.512584        -1.715228
 O         1.643380         0.736739        -1.382797
 O         2.262336         0.113690         0.848105
 H        -0.079275        -0.342952         1.391398
 H        -0.162240         1.262878         0.221851
 H        -1.033200        -0.086654        -0.251259
 H         1.695097        -2.235513         0.175670
 H         1.180619        -1.988258        -1.607055
 H         3.992467        -1.603418        -1.228218
 H         4.169531        -0.578952         1.027551
 H         3.998528         2.019793        -0.392880
 H         4.972649         0.662175        -1.050266
 H         3.050862         0.709553        -2.770908
