19
Iteration:  1876charge 0 multiplicity 1
 C        -0.051317         0.078008         0.285160
 C         1.275394        -0.087458        -0.234497
 C         1.749612        -1.512437        -0.680925
 C         3.094471        -1.084999        -1.011454
 C         3.595679        -0.169443         0.117823
 C         3.974761         0.982769        -0.770997
 C         2.909083         0.408936        -1.687806
 O         1.645871         0.895265        -1.301605
 O         2.270237         0.060235         0.807691
 H        -0.215951        -0.519982         1.246491
 H        -0.030092         1.119172         0.676245
 H        -1.012546         0.007679        -0.383750
 H         1.477614        -2.055740         0.196949
 H         1.164083        -1.861457        -1.489140
 H         3.881343        -1.843362        -1.391524
 H         4.231137        -0.708551         0.845396
 H         3.897906         2.003662        -0.459150
 H         4.934444         0.773433        -1.230207
 H         3.049927         0.676612        -2.783364
