19
Iteration:   135
 C        -0.114488         0.147857         0.444714
 C         1.296515        -0.163094        -0.177833
 C         1.689227        -1.437329        -0.857689
 C         3.157811        -1.053059        -1.067738
 C         3.671633        -0.223296         0.095466
 C         4.050366         1.015356        -0.751761
 C         2.905822         0.393928        -1.639879
 O         1.475906         0.788790        -1.207849
 O         2.382791         0.101170         0.733389
 H        -0.637977        -0.776891         0.888475
 H        -0.202443         1.052883         1.053687
 H        -0.773207         0.350232        -0.389583
 H         1.495931        -2.381840        -0.236162
 H         1.296755        -1.400952        -1.874844
 H         3.787496        -1.771633        -1.646384
 H         4.261363        -0.810136         0.853192
 H         3.856172         2.054367        -0.353494
 H         5.052134         0.985561        -1.066018
 H         2.851650         0.555834        -2.643064
