19
Iteration:   710
 C        -0.119414         0.095380         0.509357
 C         1.295063        -0.168881        -0.137905
 C         1.729994        -1.519279        -0.769074
 C         3.067249        -1.013335        -1.242781
 C         3.539108        -0.220620         0.106445
 C         4.064075         0.941806        -0.755526
 C         3.023923         0.517596        -1.807818
 O         1.582665         0.837369        -1.289367
 O         2.280307         0.119086         0.880559
 H        -0.435429        -0.696777         1.104960
 H        -0.182673         1.069147         1.012497
 H        -0.806984         0.335433        -0.398348
 H         1.963244        -2.293730        -0.006184
 H         0.995004        -1.825506        -1.495806
 H         3.815124        -1.685182        -1.682781
 H         4.069127        -0.827693         0.827546
 H         4.020248         1.890482        -0.060305
 H         5.024343         0.759054        -1.240103
 H         3.135895         0.645032        -2.818783
