19
Iteration:  3497
 C        -0.050658         0.183321         0.303655
 C         1.305169        -0.160700        -0.279314
 C         1.768982        -1.555509        -0.774637
 C         3.191026        -0.975215        -1.047170
 C         3.508654        -0.105503         0.291331
 C         3.961276         0.935523        -0.742303
 C         2.941318         0.437069        -1.719401
 O         1.559163         0.737901        -1.384036
 O         2.274742         0.107878         0.886922
 H        -0.224253        -0.194045         1.366344
 H         0.034718         1.329438         0.312978
 H        -0.842976        -0.169522        -0.384246
 H         1.656156        -2.219632         0.113874
 H         1.032997        -2.040985        -1.504230
 H         3.872197        -1.759804        -1.577777
 H         4.140906        -0.714379         0.956365
 H         3.893657         2.001081        -0.461259
 H         4.943779         0.684770        -0.997058
 H         3.245039         0.704913        -2.723284
