19
Iteration:   594charge 0 multiplicity 1
 C        -0.118356         0.111399         0.537652
 C         1.294837        -0.141277        -0.140564
 C         1.719135        -1.392517        -0.861741
 C         3.124680        -1.000168        -1.233745
 C         3.552088        -0.239247         0.182000
 C         4.029280         0.953408        -0.722076
 C         2.972755         0.408273        -1.746175
 O         1.575750         0.758592        -1.287850
 O         2.332056         0.121520         0.846728
 H        -0.146466        -0.435919         1.505481
 H        -0.150044         1.216883         0.567944
 H        -0.876760        -0.120146        -0.273554
 H         1.661506        -2.262590        -0.192804
 H         0.978470        -1.414602        -1.708481
 H         3.673870        -1.753410        -1.779409
 H         4.368974        -0.898125         0.665240
 H         3.609904         1.809648        -0.336122
 H         5.023797         0.873176        -1.131683
 H         3.047784         0.766360        -2.903374
