19
Iteration:  3536charge 0 multiplicity 1
 C        -0.056887         0.090141         0.216977
 C         1.304380        -0.155838        -0.188391
 C         1.595905        -1.501037        -0.716190
 C         3.121996        -1.084375        -1.007840
 C         3.543961        -0.206996         0.268198
 C         3.940008         1.049394        -0.739990
 C         3.009352         0.386439        -1.754827
 O         1.623466         0.812369        -1.362418
 O         2.354630         0.136650         0.873330
 H        -0.188120        -0.334272         1.183124
 H        -0.269715         1.128416         0.169489
 H        -0.855758        -0.293871        -0.454886
 H         1.599709        -2.277833         0.035133
 H         1.208265        -1.762323        -1.656564
 H         3.913654        -1.562181        -1.495972
 H         4.263516        -0.452475         1.057622
 H         3.717718         2.062521        -0.353386
 H         5.031001         1.070348        -1.174153
 H         3.033760         0.564639        -2.881582
