19
Iteration:  1575charge 0 multiplicity 1
 C        -0.014787         0.081281         0.407866
 C         1.320371        -0.080410        -0.316500
 C         1.656844        -1.462957        -0.749814
 C         3.088366        -1.026942        -1.034430
 C         3.554739        -0.148469         0.157986
 C         4.032356         0.966498        -0.722527
 C         2.887647         0.378180        -1.741199
 O         1.650171         0.847279        -1.299821
 O         2.268890         0.053555         0.813608
 H         0.085091        -0.678936         1.311039
 H        -0.125896         1.098410         0.854508
 H        -0.915955        -0.221480        -0.289502
 H         1.348960        -2.211537        -0.069123
 H         1.326337        -1.739254        -1.745439
 H         3.884267        -1.687620        -1.488429
 H         4.189642        -0.475971         0.960231
 H         3.883067         1.999749        -0.350043
 H         4.971613         0.621453        -1.132728
 H         2.947725         0.660437        -2.755063
