19
Iteration:   727charge 0 multiplicity 1
 C        -0.039649         0.130485         0.368972
 C         1.310912        -0.122985        -0.113382
 C         1.662312        -1.431043        -0.837400
 C         3.098908        -0.971429        -1.156340
 C         3.640619        -0.265504         0.155553
 C         3.984145         0.954939        -0.712024
 C         2.853250         0.448503        -1.659379
 O         1.563319         0.722325        -1.271170
 O         2.373071         0.099008         0.803758
 H        -0.250169        -0.676795         1.184236
 H        -0.064805         1.139239         0.855553
 H        -0.730531         0.283913        -0.407548
 H         1.561477        -2.305709        -0.175460
 H         1.087731        -1.519684        -1.791064
 H         3.777476        -1.632749        -1.726064
 H         4.374747        -0.629230         0.896565
 H         3.927075         1.957900        -0.449880
 H         5.010326         0.783476        -1.111897
 H         2.805683         0.800441        -2.809115
