19
Iteration:   415
 C        -0.118131         0.059753         0.371711
 C         1.302362        -0.095518        -0.141475
 C         1.659876        -1.449482        -0.757797
 C         3.030856        -1.021961        -1.180252
 C         3.628019        -0.235134         0.113345
 C         3.983296         0.999990        -0.720256
 C         2.929782         0.469665        -1.783217
 O         1.597466         0.845010        -1.275579
 O         2.429810         0.039376         0.879354
 H        -0.156135        -0.531399         1.366217
 H        -0.361480         1.138096         0.516823
 H        -0.764967        -0.417301        -0.365700
 H         1.578645        -2.237928         0.014797
 H         1.019243        -1.675281        -1.625513
 H         3.690914        -1.887352        -1.427305
 H         4.342136        -0.739990         0.776933
 H         3.864993         2.009363        -0.244211
 H         4.983262         0.964134        -1.042397
 H         2.985051         0.764111        -2.919069
