19
Iteration:  3781
 C        -0.116678         0.170959         0.271366
 C         1.297962        -0.134508        -0.271229
 C         1.767080        -1.465210        -0.707456
 C         3.210739        -1.097329        -0.999235
 C         3.536210        -0.176471         0.184932
 C         3.932567         0.953399        -0.737020
 C         2.954902         0.419794        -1.777729
 O         1.616352         0.784701        -1.354373
 O         2.305679         0.112684         0.880372
 H        -0.286030        -0.671100         0.960920
 H        -0.168536         1.147232         0.868543
 H        -0.943542         0.006128        -0.546292
 H         1.538997        -2.117401         0.062268
 H         0.972250        -1.806285        -1.359769
 H         4.096456        -1.652380        -1.415868
 H         4.082599        -0.606164         0.982790
 H         3.586785         1.900952        -0.240920
 H         5.015776         1.179411        -0.885248
 H         2.970835         0.475090        -2.874941
