19
Iteration:  3929
 C        -0.055579         0.154549         0.332621
 C         1.295053        -0.132662        -0.233202
 C         1.757747        -1.533264        -0.721789
 C         3.167458        -0.963220        -1.105211
 C         3.532314        -0.163054         0.243331
 C         3.999682         0.952753        -0.692268
 C         2.975000         0.384677        -1.745778
 O         1.602159         0.769064        -1.377213
 O         2.186214         0.132836         0.845042
 H        -0.250688        -0.256621         1.348230
 H        -0.331447         1.205046         0.557380
 H        -0.659837        -0.408212        -0.325069
 H         1.827276        -2.387414         0.114539
 H         1.131109        -1.771206        -1.595803
 H         3.822717        -1.646465        -1.727490
 H         4.245131        -0.602127         0.998368
 H         3.991780         2.000255        -0.399244
 H         4.942656         0.677924        -1.048457
 H         3.209253         0.625332        -2.806984
