19
Iteration:  4934
 C        -0.044996         0.180248         0.279069
 C         1.284051        -0.192883        -0.262459
 C         1.754831        -1.534727        -0.724316
 C         3.126748        -1.010142        -1.059471
 C         3.518616        -0.089526         0.339699
 C         4.099561         0.929483        -0.742951
 C         2.927379         0.439133        -1.704695
 O         1.599814         0.700242        -1.422768
 O         2.184809         0.143445         0.825156
 H         0.138406         0.013966         1.376685
 H        -0.306936         1.261938         0.351463
 H        -1.022861        -0.257939        -0.078981
 H         1.594553        -2.131770         0.134721
 H         1.140089        -1.906984        -1.529515
 H         3.925908        -1.687725        -1.487413
 H         4.350969        -0.382383         1.029628
 H         4.041650         2.013481        -0.469627
 H         5.111657         0.607056        -1.014786
 H         3.079375         0.571086        -2.720011
