19
Iteration:  2849charge 0 multiplicity 1
 C        -0.118578         0.230239         0.295266
 C         1.325346        -0.102897        -0.271275
 C         1.776799        -1.541119        -0.667360
 C         3.163600        -1.071602        -1.118227
 C         3.549524        -0.223835         0.176956
 C         3.914956         0.950203        -0.729550
 C         2.918609         0.413372        -1.733425
 O         1.625655         0.740858        -1.331518
 O         2.293458         0.174039         0.902062
 H        -0.296384        -0.543456         1.047429
 H        -0.088037         1.196226         0.738464
 H        -0.811648         0.094650        -0.555035
 H         1.630316        -2.291313         0.165867
 H         1.229460        -1.973648        -1.568791
 H         3.839289        -1.804869        -1.491982
 H         4.357096        -0.507698         0.831740
 H         3.622339         1.988297        -0.452745
 H         4.987974         0.934100        -0.999120
 H         3.067407         0.679144        -2.737448
