19
Iteration:    10charge 0 multiplicity 1
 C        -0.119408         0.146432         0.443621
 C         1.330984        -0.091544        -0.228476
 C         1.729664        -1.481283        -0.761806
 C         3.108618        -1.040254        -1.177102
 C         3.620680        -0.225769         0.116054
 C         4.026274         0.956147        -0.716565
 C         2.925009         0.399258        -1.747693
 O         1.581185         0.898416        -1.209210
 O         2.305879         0.024861         0.770564
 H        -0.186524        -0.531016         1.184540
 H        -0.456908         1.046916         0.903308
 H        -0.913927        -0.197606        -0.230467
 H         1.697567        -2.200709        -0.022516
 H         1.102527        -1.862951        -1.554258
 H         3.935690        -1.682961        -1.443767
 H         4.195686        -0.504410         0.966671
 H         3.661486         1.891152        -0.431017
 H         5.129168         0.916803        -1.076315
 H         2.790659         0.660422        -2.881737
