19
Iteration:   698
 C        -0.085668         0.096831         0.453690
 C         1.263226        -0.046702        -0.163132
 C         1.737336        -1.568569        -0.735327
 C         3.095838        -0.948239        -1.171456
 C         3.477619        -0.285711         0.118410
 C         4.054060         0.910107        -0.755340
 C         2.947095         0.474236        -1.797529
 O         1.612864         0.918996        -1.274871
 O         2.312153         0.060040         0.797171
 H        -0.208737        -0.807437         0.984418
 H        -0.036058         0.849237         1.258824
 H        -0.971382         0.102336        -0.250625
 H         1.820374        -2.214218         0.176414
 H         1.175300        -2.127825        -1.475245
 H         3.944129        -1.575357        -1.488882
 H         4.226715        -0.699528         0.766651
 H         3.958809         2.026089        -0.492014
 H         5.105364         0.712196        -0.930465
 H         2.915135         0.754854        -2.768343
