19
Iteration:   660
 C        -0.111262         0.150478         0.434960
 C         1.386473        -0.129688        -0.090856
 C         1.651357        -1.464193        -0.907107
 C         3.060392        -1.014253        -1.103168
 C         3.604949        -0.194385         0.124946
 C         3.998010         0.990310        -0.746951
 C         2.905415         0.408899        -1.767504
 O         1.576301         0.737130        -1.256828
 O         2.407642         0.091047         0.891569
 H        -0.444914        -0.691778         1.121240
 H        -0.428061         1.117892         0.827735
 H        -0.702649         0.246384        -0.469533
 H         1.488949        -2.431282        -0.455132
 H         1.085893        -1.273563        -1.845449
 H         3.858313        -1.621905        -1.515380
 H         4.256954        -0.873948         0.751135
 H         3.718738         1.971402        -0.483657
 H         5.058184         0.882418        -0.952162
 H         3.033452         0.716447        -2.923357
