19
Iteration:  1276
 C        -0.103238         0.224115         0.378330
 C         1.236766        -0.158072        -0.248421
 C         1.751427        -1.442394        -0.753381
 C         3.145084        -0.939273        -1.068244
 C         3.653184        -0.246295         0.163901
 C         3.998121         0.965369        -0.773873
 C         2.866476         0.436654        -1.735648
 O         1.601899         0.767101        -1.283325
 O         2.291059        -0.008562         0.873040
 H        -0.331969        -0.642887         1.079563
 H         0.154801         1.171805         0.929583
 H        -0.870024         0.317716        -0.523928
 H         1.707811        -2.196900         0.047078
 H         1.287746        -1.843383        -1.699110
 H         3.738877        -1.579346        -1.681568
 H         4.405522        -0.703332         0.842200
 H         3.781386         1.974816        -0.519815
 H         5.035873         0.964193        -1.034514
 H         2.833643         0.577341        -2.887924
