19
Iteration:  1573
 C        -0.030007         0.078961         0.418405
 C         1.323407        -0.084216        -0.302666
 C         1.647602        -1.455098        -0.760559
 C         3.090643        -1.013756        -1.028398
 C         3.574900        -0.155712         0.164462
 C         4.019012         0.976360        -0.732827
 C         2.916734         0.381105        -1.733238
 O         1.642066         0.832512        -1.314863
 O         2.263912         0.044959         0.812109
 H         0.101146        -0.606902         1.268778
 H        -0.084663         1.075024         0.819863
 H        -0.758353        -0.177735        -0.269069
 H         1.351937        -2.238782        -0.044252
 H         1.252775        -1.662967        -1.757226
 H         3.835397        -1.683628        -1.518320
 H         4.174238        -0.446103         1.017113
 H         3.857626         2.001643        -0.334861
 H         4.990350         0.564925        -1.117201
 H         2.882454         0.666795        -2.790404
