19
Iteration:   824
 C        -0.070072         0.059258         0.387551
 C         1.341123        -0.100408        -0.156964
 C         1.621333        -1.465522        -0.824908
 C         3.099254        -1.041696        -1.143262
 C         3.544255        -0.250804         0.130096
 C         4.015423         0.971325        -0.780261
 C         2.931349         0.471453        -1.760711
 O         1.570967         0.830877        -1.233641
 O         2.385066         0.115882         0.877497
 H         0.019816        -0.565678         1.334361
 H        -0.413520         1.072224         0.666421
 H        -0.853704        -0.237395        -0.207445
 H         1.662046        -2.266449        -0.086325
 H         1.038526        -1.722763        -1.724371
 H         3.719640        -1.798627        -1.634554
 H         4.285302        -0.676405         0.829491
 H         3.781788         1.928532        -0.260885
 H         5.153124         1.062840        -1.074981
 H         3.125852         0.597548        -2.825402
