19
Iteration:   257charge 0 multiplicity 1
 C        -0.022957         0.126498         0.455574
 C         1.264521        -0.088212        -0.249940
 C         1.647971        -1.442042        -0.727810
 C         3.118610        -1.022013        -1.121423
 C         3.600350        -0.299505         0.128484
 C         3.992887         1.037459        -0.716194
 C         2.928856         0.457930        -1.762310
 O         1.559541         0.854276        -1.270012
 O         2.381777        -0.029041         0.752189
 H        -0.175806        -0.438978         1.363408
 H        -0.132503         1.215270         0.763859
 H        -0.855365        -0.215421        -0.310774
 H         1.625387        -2.046763         0.254696
 H         0.984320        -2.027136        -1.467811
 H         3.780093        -1.690660        -1.626755
 H         4.240723        -0.909596         0.813570
 H         3.611778         1.962334        -0.257874
 H         5.064376         1.221076        -1.038549
 H         3.042533         0.745215        -2.756126
