19
Iteration:  1359
 C         0.013334         0.075668         0.385021
 C         1.278922        -0.148571        -0.244164
 C         1.690484        -1.488545        -0.783195
 C         3.085227        -1.010234        -1.143228
 C         3.525896        -0.215240         0.145213
 C         4.004639         0.999403        -0.700119
 C         2.956472         0.439817        -1.717533
 O         1.654860         0.804985        -1.238141
 O         2.228647         0.122956         0.791481
 H         0.081085        -0.488515         1.288138
 H         0.019404         1.136104         0.625074
 H        -0.876266        -0.125954        -0.164542
 H         1.766027        -2.233507         0.017406
 H         0.889972        -1.775083        -1.459524
 H         3.900530        -1.697667        -1.510011
 H         4.176893        -0.627012         0.910275
 H         3.893309         2.076769        -0.400277
 H         5.001229         0.654618        -1.187526
 H         2.956243         0.669190        -2.743763
