19
Iteration:  2895
 C        -0.211782         0.123950         0.304727
 C         1.320349        -0.065155        -0.261496
 C         1.750597        -1.507626        -0.792807
 C         3.179959        -1.100478        -0.978688
 C         3.588425        -0.146051         0.243374
 C         3.953084         0.923450        -0.790073
 C         2.958766         0.411104        -1.768337
 O         1.594117         0.818552        -1.299130
 O         2.302508         0.139659         0.868744
 H        -0.075959        -0.232617         1.314807
 H        -0.337124         1.182487         0.382478
 H        -0.959088        -0.447823        -0.200188
 H         1.863482        -2.281353        -0.038611
 H         1.236198        -2.013365        -1.659384
 H         3.846673        -1.733544        -1.380983
 H         4.207649        -0.525691         1.060058
 H         3.995589         1.956775        -0.440215
 H         4.895911         0.685139        -1.260136
 H         3.112497         0.674614        -2.836130
