19
Iteration:  2995
 C        -0.112417         0.191136         0.307521
 C         1.291076        -0.122718        -0.205625
 C         1.810239        -1.545993        -0.711334
 C         3.106703        -1.007687        -1.089818
 C         3.578298        -0.118031         0.230406
 C         3.983844         0.952704        -0.755328
 C         2.953446         0.348125        -1.736353
 O         1.605222         0.800236        -1.333299
 O         2.223775         0.113314         0.846267
 H        -0.387707        -0.761336         0.749313
 H        -0.044230         1.122749         0.944606
 H        -0.724627         0.359662        -0.572645
 H         1.918187        -2.385113         0.024889
 H         1.174015        -1.907203        -1.591575
 H         3.965095        -1.727531        -1.397505
 H         4.234442        -0.447782         1.155306
 H         3.916763         1.973758        -0.350423
 H         5.018829         0.759410        -1.150303
 H         2.933067         0.291726        -2.957075
