19
Iteration:  2930charge 0 multiplicity 1
 C        -0.068623         0.116646         0.300346
 C         1.284667        -0.109130        -0.268965
 C         1.666053        -1.478639        -0.735642
 C         3.174724        -1.034677        -1.067885
 C         3.533833        -0.228672         0.210774
 C         3.984677         0.988971        -0.710452
 C         2.947882         0.433860        -1.731947
 O         1.614756         0.698882        -1.339607
 O         2.303779         0.191988         0.865993
 H        -0.110591        -0.260291         1.319666
 H        -0.342710         1.211091         0.307258
 H        -0.890546        -0.293369        -0.252092
 H         1.747875        -2.257723        -0.022727
 H         1.169187        -1.777793        -1.644617
 H         3.738133        -1.995468        -1.231053
 H         4.330018        -0.525260         0.950914
 H         3.811615         1.919322        -0.191579
 H         4.917914         0.978849        -1.273921
 H         3.260023         0.748329        -2.805007
