19
Iteration:  2207
 C        -0.079795         0.193449         0.283473
 C         1.321114        -0.109102        -0.145776
 C         1.661555        -1.441993        -0.762860
 C         3.132108        -0.984471        -1.041958
 C         3.560384        -0.195873         0.209102
 C         3.989004         0.996321        -0.742134
 C         2.955839         0.403138        -1.737589
 O         1.578989         0.623957        -1.350993
 O         2.308425         0.129865         0.874816
 H        -0.296662        -0.673296         0.934691
 H         0.041561         1.075331         0.944512
 H        -0.735940         0.266719        -0.690244
 H         1.623793        -2.386906        -0.214546
 H         1.047913        -1.547271        -1.661056
 H         3.840557        -1.740315        -1.445340
 H         4.284248        -0.705451         0.858298
 H         3.926050         2.083013        -0.432113
 H         5.084194         0.910274        -1.026995
 H         3.106649         0.578227        -2.856494
