19
Iteration:  3299
 C        -0.198459         0.107020         0.260164
 C         1.320659        -0.103833        -0.181940
 C         1.755342        -1.400954        -0.709170
 C         3.167916        -1.071817        -0.998714
 C         3.573245        -0.164820         0.225975
 C         3.971729         0.937459        -0.747289
 C         2.960856         0.334242        -1.738137
 O         1.571892         0.775644        -1.347051
 O         2.336448         0.164430         0.849378
 H        -0.287278        -0.323961         1.260230
 H        -0.302243         1.167838         0.192652
 H        -0.755972        -0.421500        -0.574230
 H         1.678389        -2.204321         0.051277
 H         1.221161        -1.569139        -1.685531
 H         3.758462        -1.569069        -1.680148
 H         4.262496        -0.593047         0.950321
 H         3.812943         1.893754        -0.301552
 H         4.946809         0.849718        -1.194148
 H         3.123431         0.344861        -2.846443
