19
Iteration:  4593charge 0 multiplicity 1
 C        -0.115350         0.157964         0.305713
 C         1.307243        -0.132022        -0.252359
 C         1.814689        -1.571842        -0.776792
 C         3.137061        -1.027380        -0.945522
 C         3.564767        -0.126250         0.245580
 C         4.017395         0.970242        -0.679798
 C         2.910325         0.377998        -1.766836
 O         1.585166         0.767196        -1.418501
 O         2.237505         0.166401         0.823418
 H        -0.337436        -0.537320         1.096548
 H        -0.047733         1.105918         0.751855
 H        -0.992725         0.106378        -0.287620
 H         1.651430        -2.198121         0.159090
 H         1.122326        -1.909217        -1.633952
 H         3.967211        -1.589695        -1.421708
 H         4.334222        -0.450330         0.950621
 H         3.979985         1.999605        -0.375625
 H         4.998875         0.615685        -0.955569
 H         3.130889         0.399019        -2.792531
