19
Iteration:  3685charge 0 multiplicity 1
 C        -0.127437         0.101150         0.301399
 C         1.305862        -0.113418        -0.221392
 C         1.715144        -1.438967        -0.700274
 C         3.164515        -1.014227        -1.091429
 C         3.506683        -0.179246         0.190157
 C         4.015834         0.978604        -0.724760
 C         3.008966         0.407035        -1.678377
 O         1.625842         0.705787        -1.358243
 O         2.274401         0.159431         0.822379
 H        -0.169268        -0.466470         1.239418
 H        -0.444860         1.134099         0.576427
 H        -0.985499        -0.348882        -0.325387
 H         1.556263        -2.278751         0.016473
 H         1.220468        -1.895590        -1.603897
 H         3.860596        -1.767683        -1.395656
 H         4.228330        -0.370194         0.999319
 H         3.867010         2.005143        -0.460008
 H         5.002043         0.919125        -1.122715
 H         2.995488         0.597651        -2.721498
