19
Iteration:  2706charge 0 multiplicity 1
 C        -0.054400         0.193323         0.385476
 C         1.296696        -0.001204        -0.223192
 C         1.750910        -1.469898        -0.739861
 C         3.163164        -1.025888        -1.062940
 C         3.551072        -0.156362         0.222245
 C         3.907984         1.011488        -0.710507
 C         2.998159         0.331408        -1.762051
 O         1.630348         0.723929        -1.345839
 O         2.244328         0.033862         0.789603
 H         0.016286        -0.139581         1.445667
 H        -0.398948         1.245151         0.214304
 H        -0.857902        -0.343383        -0.161209
 H         1.606446        -2.416187         0.029981
 H         1.155666        -1.723076        -1.672892
 H         3.967801        -1.775303        -1.440740
 H         4.166844        -0.563704         1.030627
 H         3.627113         2.046740        -0.525562
 H         5.000200         0.954741        -0.964204
 H         2.966688         0.256953        -2.833467
