19
Iteration:  3704
 C        -0.038907         0.048222         0.318191
 C         1.341457        -0.097495        -0.245900
 C         1.668730        -1.567747        -0.705448
 C         3.151072        -1.070735        -0.973130
 C         3.580559        -0.186725         0.216995
 C         3.963946         1.002644        -0.652956
 C         2.927385         0.379468        -1.833614
 O         1.633698         0.886983        -1.371466
 O         2.239592         0.150912         0.796518
 H         0.016127        -0.383328         1.333070
 H        -0.255200         1.145654         0.215958
 H        -0.825194        -0.363929        -0.340999
 H         1.681755        -2.185328         0.126636
 H         1.167458        -1.974606        -1.544168
 H         3.888333        -1.784698        -1.407188
 H         4.077438        -0.607756         1.041308
 H         3.703079         2.027867        -0.279662
 H         5.003774         0.999157        -1.031668
 H         3.045119         0.694447        -2.872071
