19
Iteration:  3380charge 0 multiplicity 1
 C        -0.057340         0.182086         0.290325
 C         1.351844        -0.206505        -0.216319
 C         1.729530        -1.429132        -0.773460
 C         3.106190        -1.059127        -1.005393
 C         3.584273        -0.115629         0.260557
 C         3.894610         1.002014        -0.678107
 C         3.020883         0.356138        -1.714211
 O         1.571225         0.700232        -1.367257
 O         2.299542         0.159994         0.788981
 H        -0.392925        -0.565034         1.065407
 H        -0.081803         1.267909         0.684885
 H        -0.748078        -0.033631        -0.505679
 H         1.649278        -2.272528        -0.017426
 H         0.895054        -1.663818        -1.532678
 H         3.804757        -1.858444        -1.517829
 H         4.317654        -0.551487         0.991453
 H         3.707598         2.098542        -0.368165
 H         4.946989         0.914945        -1.131176
 H         3.018249         0.403320        -2.842539
