19
Iteration:  3348
 C        -0.140170         0.212794         0.370009
 C         1.328432        -0.126705        -0.243809
 C         1.808063        -1.482458        -0.751681
 C         3.160204        -1.012837        -1.026938
 C         3.532621        -0.202046         0.246428
 C         3.934029         0.966178        -0.721881
 C         2.980844         0.343287        -1.766848
 O         1.599595         0.768603        -1.350419
 O         2.228044         0.114368         0.797435
 H        -0.047438        -0.326142         1.315301
 H        -0.255682         1.320425         0.322749
 H        -0.741469        -0.292408        -0.344257
 H         1.860470        -2.136587         0.144299
 H         1.107426        -1.807052        -1.567179
 H         4.008288        -1.777472        -1.324791
 H         4.289466        -0.615751         0.957655
 H         3.630987         2.043891        -0.439599
 H         5.041776         1.000427        -1.030060
 H         3.216942         0.346321        -2.916881
