19
Iteration:   618charge 0 multiplicity 1
 C         0.102880         0.187456         0.406354
 C         1.332591        -0.122393        -0.287663
 C         1.672338        -1.583993        -0.733359
 C         3.077321        -1.005448        -1.048469
 C         3.545635        -0.237520         0.151517
 C         3.956360         0.981541        -0.700487
 C         2.808928         0.559039        -1.710856
 O         1.558075         0.903187        -1.273245
 O         2.344503        -0.057860         0.744092
 H         0.111063        -0.468013         1.402524
 H        -0.023625         1.277811         0.540596
 H        -0.604670        -0.146939        -0.295059
 H         1.603375        -2.230049         0.173183
 H         1.288850        -2.031813        -1.717782
 H         3.703318        -1.680235        -1.643925
 H         4.392842        -0.580042         0.823364
 H         3.916125         1.829253        -0.092104
 H         4.885980         0.730542        -1.286124
 H         2.934580         0.693820        -2.829127
