19
Iteration:  2126charge 0 multiplicity 1
 C        -0.089550         0.086654         0.376844
 C         1.314567        -0.090608        -0.214903
 C         1.720495        -1.457840        -0.839075
 C         3.133322        -1.063998        -1.015308
 C         3.529570        -0.233551         0.187323
 C         4.015956         0.961530        -0.741813
 C         2.922231         0.329573        -1.725519
 O         1.639557         0.795198        -1.274378
 O         2.270577         0.237428         0.821160
 H        -0.100799        -0.457914         1.331293
 H        -0.176190         1.153191         0.423772
 H        -0.887126        -0.247304        -0.285246
 H         1.338854        -2.415043        -0.269120
 H         1.388899        -1.440834        -1.985962
 H         3.905904        -1.740634        -1.413662
 H         4.282286        -0.678926         0.852928
 H         3.634215         1.949487        -0.282151
 H         5.079982         0.833694        -1.102119
 H         3.019667         0.407897        -2.809861
