19
Iteration:  4255
 C        -0.100766         0.129835         0.319657
 C         1.279996        -0.082011        -0.233160
 C         1.752034        -1.617433        -0.823960
 C         3.163745        -1.070136        -0.976947
 C         3.557855        -0.146177         0.281367
 C         3.962453         0.946249        -0.727626
 C         2.958172         0.391903        -1.703870
 O         1.590415         0.748343        -1.340409
 O         2.288043         0.253178         0.812362
 H        -0.458968        -0.563970         1.081856
 H        -0.009952         1.133583         0.819443
 H        -0.865859         0.241331        -0.515904
 H         1.635824        -2.471974        -0.352937
 H         1.284387        -1.970574        -1.773076
 H         3.880257        -1.698346        -1.524549
 H         4.210941        -0.518798         1.062025
 H         3.876447         2.060842        -0.550815
 H         4.995627         0.749516        -1.147891
 H         3.119252         0.651795        -2.736382
