19
Iteration:   406charge 0 multiplicity 1
 C        -0.023117         0.089998         0.392685
 C         1.352092        -0.108356        -0.150756
 C         1.642553        -1.531276        -0.740993
 C         3.037504        -0.997667        -1.229770
 C         3.511642        -0.228011         0.136641
 C         3.981580         1.000663        -0.758281
 C         2.945439         0.475315        -1.784783
 O         1.679626         0.834245        -1.214294
 O         2.314666         0.055052         0.865240
 H        -0.099352        -0.456500         1.325886
 H        -0.378950         1.110666         0.556311
 H        -0.827554        -0.297597        -0.268772
 H         1.901191        -2.317745        -0.045611
 H         0.967575        -1.748813        -1.537862
 H         3.779149        -1.720070        -1.628788
 H         4.339381        -0.679613         0.766683
 H         3.667287         1.983629        -0.305119
 H         4.927588         0.955424        -1.201697
 H         3.051951         0.796630        -2.914579
