19
Iteration:  1769charge 0 multiplicity 1
 C        -0.062452         0.209998         0.379858
 C         1.269078        -0.148228        -0.183703
 C         1.700976        -1.492494        -0.900099
 C         3.110231        -1.029814        -1.060102
 C         3.576900        -0.184761         0.186054
 C         3.971643         1.046582        -0.747069
 C         2.926473         0.318335        -1.661010
 O         1.587232         0.726998        -1.276100
 O         2.342274         0.133509         0.839703
 H        -0.211036        -0.493766         1.259051
 H         0.020919         1.290281         0.557718
 H        -0.584941        -0.058496        -0.465735
 H         1.495024        -2.412390        -0.352583
 H         1.048915        -1.675857        -1.717883
 H         3.838784        -1.640827        -1.704090
 H         4.299052        -0.487118         0.952730
 H         3.829066         2.070408        -0.355861
 H         5.011957         1.015598        -1.019716
 H         3.070852         0.249353        -2.798459
