19
Iteration:  4594
 C        -0.108892         0.158279         0.304845
 C         1.298414        -0.137807        -0.251269
 C         1.815096        -1.575663        -0.775787
 C         3.134688        -1.026400        -0.944298
 C         3.573103        -0.115733         0.243566
 C         4.018788         0.968052        -0.677152
 C         2.904673         0.371370        -1.756369
 O         1.585275         0.769589        -1.420951
 O         2.237406         0.168145         0.819552
 H        -0.319765        -0.551971         1.082784
 H        -0.046411         1.116652         0.756309
 H        -0.959709         0.123337        -0.301227
 H         1.673457        -2.196736         0.137070
 H         1.099053        -1.904797        -1.656174
 H         3.945876        -1.569031        -1.421917
 H         4.324051        -0.459325         0.962537
 H         3.967158         1.980058        -0.368931
 H         4.983391         0.595216        -0.969159
 H         3.142890         0.421669        -2.791374
