19
Iteration:  3941
 C        -0.126714         0.096955         0.303423
 C         1.307805        -0.085278        -0.220879
 C         1.768356        -1.390673        -0.769855
 C         3.161280        -1.022969        -1.044541
 C         3.540076        -0.212927         0.230101
 C         3.997913         0.950187        -0.704782
 C         2.950202         0.378038        -1.723764
 O         1.574039         0.756679        -1.333222
 O         2.284389         0.142696         0.803734
 H        -0.034125        -0.436404         1.223467
 H        -0.221026         1.196363         0.315335
 H        -0.938726        -0.214458        -0.301007
 H         1.815634        -2.281670         0.030309
 H         1.259267        -1.862163        -1.652975
 H         3.906832        -1.812243        -1.447752
 H         4.144212        -0.523795         1.121899
 H         3.775648         1.944602        -0.294177
 H         5.023576         0.883793        -0.970693
 H         2.951601         0.421075        -2.856174
