19
Iteration:  2402charge 0 multiplicity 1
 C        -0.119453         0.150071         0.302512
 C         1.331229        -0.125539        -0.232547
 C         1.735192        -1.488569        -0.696816
 C         3.116128        -1.044925        -0.988521
 C         3.633279        -0.118533         0.222918
 C         3.960694         0.988568        -0.787406
 C         2.949013         0.364925        -1.761767
 O         1.616221         0.842671        -1.356725
 O         2.259793         0.031735         0.842096
 H        -0.470536        -0.691610         0.922413
 H        -0.053961         1.129631         0.809998
 H        -0.799027         0.227488        -0.483347
 H         1.747979        -2.107550         0.269155
 H         1.075294        -2.074362        -1.405041
 H         3.756566        -1.727883        -1.566825
 H         4.153247        -0.536104         1.083428
 H         3.954078         2.036665        -0.502148
 H         4.984053         0.873989        -1.166558
 H         2.970678         0.430241        -2.893685
