19
Iteration:  1075
 C        -0.051023         0.060232         0.372908
 C         1.330718        -0.113445        -0.121815
 C         1.761787        -1.460112        -0.718773
 C         3.107223        -0.982802        -1.166053
 C         3.539678        -0.320035         0.114096
 C         3.953698         0.949054        -0.782518
 C         2.889015         0.465785        -1.795350
 O         1.619144         0.858356        -1.269295
 O         2.328266         0.121489         0.896228
 H        -0.664323        -0.743998         0.857424
 H        -0.119959         1.120303         0.710675
 H        -0.654720         0.199661        -0.520956
 H         1.944257        -2.174616         0.123539
 H         1.064079        -1.791857        -1.479906
 H         3.825907        -1.705825        -1.547703
 H         4.206833        -0.747279         0.884984
 H         3.726411         1.885558        -0.399841
 H         4.891889         0.720756        -1.107737
 H         2.858258         0.641311        -2.842723
