19
Iteration:   876charge 0 multiplicity 1
 C        -0.069047         0.162583         0.396616
 C         1.270309        -0.195944        -0.215355
 C         1.659747        -1.529234        -0.838414
 C         3.138441        -1.002397        -1.106923
 C         3.701354        -0.226058         0.156656
 C         3.967136         0.981078        -0.745324
 C         2.817373         0.426889        -1.679379
 O         1.559808         0.814147        -1.240050
 O         2.393054         0.124337         0.833670
 H        -0.545448        -0.468966         1.279770
 H         0.242176         1.054662         0.974233
 H        -0.868300         0.437318        -0.412116
 H         1.515617        -2.463264        -0.330865
 H         1.364364        -1.775435        -1.911146
 H         3.818830        -1.649256        -1.703697
 H         4.459085        -0.810349         0.773099
 H         3.583018         1.965963        -0.282058
 H         4.930123         0.964771        -1.250828
 H         3.038153         0.587770        -2.708910
