19
Iteration:  4411charge 0 multiplicity 1
 C        -0.168231         0.160499         0.227139
 C         1.281966        -0.082868        -0.205472
 C         1.737741        -1.499268        -0.673090
 C         3.151589        -1.024825        -0.998798
 C         3.627027        -0.196507         0.214244
 C         3.972657         1.004084        -0.751247
 C         2.909032         0.383246        -1.720116
 O         1.636851         0.702289        -1.349655
 O         2.278345         0.129295         0.822247
 H        -0.448278        -0.671391         0.959653
 H        -0.107506         1.143909         0.810531
 H        -0.838522         0.396375        -0.634874
 H         1.560798        -2.126615         0.117593
 H         1.304000        -1.790877        -1.609037
 H         4.003839        -1.681817        -1.333280
 H         4.309459        -0.667102         0.980154
 H         3.886398         2.092666        -0.493921
 H         5.075627         0.843268        -1.083494
 H         3.074304         0.483013        -2.851656
