19
Iteration:  3006charge 0 multiplicity 1
 C        -0.108457         0.125590         0.308200
 C         1.322714        -0.123469        -0.208306
 C         1.764092        -1.440492        -0.734248
 C         3.194357        -1.018507        -0.944632
 C         3.574526        -0.201566         0.223535
 C         4.005313         0.943251        -0.783354
 C         2.893021         0.382122        -1.730874
 O         1.588256         0.754310        -1.342313
 O         2.245047         0.151614         0.802024
 H        -0.656425        -0.651604         0.854229
 H        -0.185746         1.003662         1.012596
 H        -0.690890         0.387098        -0.576147
 H         1.580447        -2.119669         0.139443
 H         1.252353        -1.777112        -1.684322
 H         3.967442        -1.677657        -1.509813
 H         4.278373        -0.804384         0.919740
 H         3.767999         1.987040        -0.533558
 H         5.073716         0.858763        -1.114391
 H         3.138603         0.557949        -2.890434
