19
Iteration:   871
 C        -0.090170         0.171559         0.391535
 C         1.272591        -0.154698        -0.261138
 C         1.704924        -1.539678        -0.828919
 C         3.155374        -1.022450        -1.103686
 C         3.713332        -0.224159         0.166459
 C         3.959227         0.936769        -0.769392
 C         2.826975         0.425144        -1.702482
 O         1.530778         0.833357        -1.198008
 O         2.380185         0.088780         0.847067
 H        -0.397434        -0.476999         1.129851
 H         0.083706         1.164291         0.841400
 H        -0.906630         0.487183        -0.256502
 H         1.563522        -2.469656        -0.220553
 H         1.390739        -1.635697        -1.859807
 H         3.937206        -1.639033        -1.556091
 H         4.396501        -0.752762         0.799984
 H         3.724689         1.878149        -0.334557
 H         4.957018         1.134834        -1.249939
 H         2.774889         0.703489        -2.846642
