19
Iteration:  2681charge 0 multiplicity 1
 C        -0.057598         0.116946         0.350168
 C         1.278686        -0.171832        -0.172114
 C         1.751403        -1.574071        -0.713255
 C         3.080345        -1.039289        -1.064408
 C         3.552672        -0.174958         0.194660
 C         3.925955         0.946638        -0.728615
 C         3.008446         0.491150        -1.783015
 O         1.643846         0.816767        -1.432984
 O         2.264898         0.153402         0.893714
 H        -0.108826        -0.115460         1.390905
 H        -0.027319         1.191578         0.099019
 H        -0.937889        -0.064157        -0.221545
 H         1.667561        -2.350673         0.155373
 H         1.156563        -1.944229        -1.539805
 H         3.814388        -1.801791        -1.293064
 H         4.172408        -0.681807         0.910617
 H         3.730827         1.979482        -0.376538
 H         4.967293         0.869745        -1.134456
 H         3.152370         0.523700        -2.830470
