19
Iteration:   470charge 0 multiplicity 1
 C        -0.051064         0.119930         0.498154
 C         1.258858        -0.155475        -0.206181
 C         1.711433        -1.483486        -0.737564
 C         3.065928        -0.938313        -1.271296
 C         3.483925        -0.159640         0.120405
 C         4.008369         0.991783        -0.768563
 C         3.021146         0.439510        -1.818536
 O         1.684731         0.811353        -1.235304
 O         2.245444        -0.019739         0.860562
 H        -0.149509        -0.637260         1.323572
 H         0.058916         1.120805         0.970910
 H        -0.894387         0.070562        -0.247090
 H         1.808312        -2.215707         0.088072
 H         1.003537        -1.918739        -1.419610
 H         3.920505        -1.617111        -1.497205
 H         4.149768        -0.630768         0.858102
 H         3.823550         2.049426        -0.360035
 H         5.020343         0.877250        -1.045758
 H         2.998453         0.723923        -2.940909
