19
Iteration:  2926
 C        -0.080174         0.106695         0.291833
 C         1.330551        -0.116825        -0.240319
 C         1.673297        -1.450198        -0.717658
 C         3.147491        -1.033834        -1.028623
 C         3.532004        -0.213483         0.177793
 C         4.002982         0.986727        -0.721493
 C         2.956835         0.437963        -1.750513
 O         1.620744         0.706179        -1.329524
 O         2.251328         0.174077         0.840974
 H         0.007944        -0.226659         1.340897
 H        -0.191378         1.179408         0.322355
 H        -0.939409        -0.375493        -0.200662
 H         1.841504        -2.321126        -0.003500
 H         1.123895        -1.853644        -1.656621
 H         3.714109        -1.826355        -1.386729
 H         4.194675        -0.613021         0.926491
 H         3.875348         1.993378        -0.234954
 H         5.024259         0.938763        -1.170481
 H         3.243541         0.679096        -2.719085
