19
Iteration:  1991
 C        -0.096280         0.086191         0.261921
 C         1.361762        -0.142389        -0.214598
 C         1.667838        -1.444629        -0.724078
 C         3.092408        -1.051223        -0.993983
 C         3.628200        -0.249073         0.204440
 C         4.042717         0.967049        -0.723641
 C         2.926939         0.443114        -1.650915
 O         1.510243         0.775177        -1.273136
 O         2.348731         0.167498         0.699836
 H        -0.351575        -0.594062         1.113657
 H        -0.224847         1.067701         0.806564
 H        -0.939719         0.069054        -0.553155
 H         1.473371        -2.184692         0.151361
 H         1.199109        -1.671463        -1.791956
 H         3.726776        -1.600412        -1.657796
 H         4.256246        -0.668941         1.007321
 H         4.081163         1.999434        -0.397132
 H         5.111726         0.996957        -1.148761
 H         3.048042         0.456971        -2.732224
