19
Iteration:  2309
 C        -0.033623         0.210033         0.270655
 C         1.330218        -0.162792        -0.173656
 C         1.716213        -1.667511        -0.697312
 C         3.067902        -1.023468        -1.116465
 C         3.494689        -0.148692         0.199199
 C         3.931549         1.046436        -0.724033
 C         2.982376         0.374798        -1.801838
 O         1.675158         0.817589        -1.287402
 O         2.269473         0.106174         0.857134
 H        -0.170534        -0.259145         1.318567
 H        -0.002249         1.356716         0.270473
 H        -0.985397        -0.237733        -0.398001
 H         1.714666        -2.424313         0.091952
 H         0.954648        -1.918686        -1.443973
 H         3.808809        -1.747268        -1.511599
 H         4.323082        -0.531120         0.807524
 H         3.686098         2.058349        -0.441061
 H         5.024891         1.116437        -0.936277
 H         3.266469         0.522017        -2.815989
