19
Iteration:  4280charge 0 multiplicity 1
 C        -0.052685         0.145466         0.314811
 C         1.313205        -0.072043        -0.212535
 C         1.733694        -1.437606        -0.738924
 C         3.169587        -1.007494        -1.015592
 C         3.480474        -0.184072         0.239939
 C         3.991036         0.980185        -0.740830
 C         2.997269         0.396638        -1.759551
 O         1.628437         0.704330        -1.371813
 O         2.200250         0.110252         0.824187
 H        -0.185399        -0.460089         1.268284
 H        -0.102361         1.208331         0.658706
 H        -0.874562        -0.145211        -0.424085
 H         1.861047        -2.260592         0.086076
 H         1.128658        -1.923274        -1.483665
 H         3.818783        -1.756888        -1.546084
 H         4.106599        -0.590292         1.058131
 H         3.819824         2.032319        -0.434422
 H         5.070056         0.787517        -1.040454
 H         3.111226         0.485369        -2.896233
