19
Iteration:  4818
 C        -0.061103         0.133208         0.308376
 C         1.267751        -0.098158        -0.207778
 C         1.731130        -1.430721        -0.635943
 C         3.107099        -1.046863        -1.043031
 C         3.656277        -0.187906         0.196063
 C         4.011280         1.023980        -0.678583
 C         2.986531         0.327197        -1.757413
 O         1.603948         0.675796        -1.454314
 O         2.210769         0.196940         0.822059
 H        -0.335337        -0.796276         0.844681
 H        -0.264844         0.854026         1.052880
 H        -0.769679         0.240017        -0.556813
 H         1.488193        -2.167768         0.194050
 H         1.157232        -1.756344        -1.589318
 H         3.764232        -1.833397        -1.377619
 H         4.233177        -0.464851         1.097401
 H         3.655712         2.006399        -0.300890
 H         5.077890         1.112340        -0.970314
 H         3.178004         0.455590        -2.929021
