19
Iteration:  3962
 C        -0.082386         0.109304         0.286150
 C         1.272882        -0.130657        -0.205962
 C         1.593556        -1.565043        -0.735721
 C         3.173406        -1.060732        -0.987339
 C         3.618792        -0.186647         0.186198
 C         3.944985         1.040622        -0.726220
 C         2.971352         0.370751        -1.704561
 O         1.649914         0.812051        -1.347696
 O         2.331768         0.172384         0.838890
 H        -0.330886        -0.630233         1.070127
 H        -0.484130         1.126989         0.422784
 H        -0.677215        -0.195615        -0.557252
 H         1.449155        -2.529318        -0.106289
 H         1.158357        -1.675475        -1.752428
 H         3.814520        -1.744667        -1.622064
 H         4.272045        -0.467375         1.039630
 H         3.713132         2.004324        -0.283348
 H         4.907215         0.988615        -1.125240
 H         3.171289         0.705083        -2.756471
