19
Iteration:  3551
 C        -0.073811         0.113321         0.234312
 C         1.352081        -0.038171        -0.281612
 C         1.763497        -1.473491        -0.723731
 C         3.105925        -1.026764        -1.088687
 C         3.562370        -0.095089         0.263371
 C         3.967174         0.951351        -0.720294
 C         2.941243         0.353773        -1.718229
 O         1.601767         0.769619        -1.342451
 O         2.254388         0.086765         0.893089
 H        -0.141820        -0.465600         1.247056
 H        -0.331153         1.195206         0.561090
 H        -0.692339        -0.428584        -0.494243
 H         1.715299        -2.162511         0.143803
 H         0.999919        -1.774340        -1.524737
 H         3.789201        -1.908158        -1.477679
 H         4.290799        -0.514816         0.986539
 H         3.777774         2.025802        -0.475736
 H         4.976223         0.694671        -0.974124
 H         3.101980         0.482697        -2.849495
