19
Iteration:  1840
 C        -0.187936         0.113751         0.306487
 C         1.392788        -0.138047        -0.091114
 C         1.676047        -1.476546        -0.832764
 C         3.117774        -1.098729        -1.101079
 C         3.524808        -0.132134         0.126333
 C         3.993378         0.966036        -0.809119
 C         2.927217         0.429032        -1.718892
 O         1.649805         0.711777        -1.273094
 O         2.329751         0.212149         0.965554
 H        -0.513919        -0.605333         0.964123
 H        -0.014142         1.060492         0.742293
 H        -0.769868         0.172688        -0.702401
 H         1.546663        -2.463254        -0.268832
 H         1.058536        -1.632690        -1.854568
 H         3.825531        -1.843090        -1.400849
 H         4.318945        -0.511999         0.791568
 H         3.913276         2.040917        -0.482279
 H         5.108971         0.707068        -1.142116
 H         3.131293         0.596041        -2.739471
