19
Iteration:  1008
 C        -0.034401         0.183797         0.482433
 C         1.320023        -0.138726        -0.200211
 C         1.688405        -1.554266        -0.859964
 C         3.099528        -1.006528        -1.180792
 C         3.535187        -0.245866         0.193604
 C         3.956071         0.991683        -0.717843
 C         2.952533         0.455789        -1.725779
 O         1.585179         0.766283        -1.280499
 O         2.330859         0.127641         0.810327
 H        -0.030786        -0.437863         1.436801
 H        -0.099931         1.291714         0.531891
 H        -0.833641        -0.201369        -0.097873
 H         1.855258        -2.333937        -0.090987
 H         1.014212        -1.803193        -1.686955
 H         3.826792        -1.602079        -1.730825
 H         4.290849        -0.707427         0.890734
 H         3.712420         1.959780        -0.357894
 H         4.943614         0.985741        -0.958722
 H         3.061661         0.577376        -2.776984
