19
Iteration:  3741
 C        -0.110315         0.177648         0.260426
 C         1.270210        -0.203226        -0.111475
 C         1.691320        -1.524952        -0.754636
 C         3.208699        -1.006214        -1.098159
 C         3.562502        -0.165934         0.239740
 C         4.070021         1.039936        -0.695765
 C         2.938559         0.442287        -1.795865
 O         1.593919         0.690284        -1.374767
 O         2.255439         0.135372         0.864978
 H        -0.501200        -0.086382         1.266838
 H        -0.131192         1.251810         0.489920
 H        -0.882143        -0.367733        -0.391590
 H         1.465578        -2.388530         0.017571
 H         1.265264        -1.682152        -1.823832
 H         3.975514        -1.785192        -1.116883
 H         4.371063        -0.520858         0.977126
 H         3.902221         1.999564        -0.258524
 H         5.043394         0.832756        -1.121249
 H         2.936127         0.681321        -2.880723
