19
Iteration:   197
 C        -0.108599         0.116299         0.421485
 C         1.304294        -0.112300        -0.191896
 C         1.616995        -1.506668        -0.854160
 C         3.083428        -1.073167        -1.084641
 C         3.662905        -0.178495         0.150925
 C         3.940587         1.002314        -0.777718
 C         2.896648         0.396493        -1.701037
 O         1.657300         0.874136        -1.237577
 O         2.394823         0.040605         0.843711
 H        -0.128405        -0.573013         1.279487
 H        -0.306003         1.107071         0.755223
 H        -0.770172        -0.190962        -0.316349
 H         1.346193        -2.346677        -0.283316
 H         1.164089        -1.591086        -1.820366
 H         3.665544        -1.642304        -1.855061
 H         4.444910        -0.610039         0.765688
 H         3.553199         2.017780        -0.364102
 H         5.001563         0.990272        -1.082698
 H         3.052288         0.730654        -2.791047
