19
Iteration:   962
 C        -0.078294         0.096811         0.363190
 C         1.333323        -0.089333        -0.069955
 C         1.720800        -1.479580        -0.852390
 C         3.071294        -0.952020        -1.221307
 C         3.560997        -0.219557         0.196769
 C         3.950603         0.925693        -0.767682
 C         2.881730         0.405380        -1.730588
 O         1.573951         0.786555        -1.304648
 O         2.408657         0.111104         0.962796
 H        -0.267416        -0.561712         1.202256
 H        -0.094218         1.163762         0.460227
 H        -0.737490        -0.101282        -0.498837
 H         1.810539        -2.330244        -0.198278
 H         0.967870        -1.541192        -1.697867
 H         3.800619        -1.723191        -1.514506
 H         4.334902        -0.769526         0.808553
 H         3.997953         2.026088        -0.488909
 H         4.802975         0.772434        -1.283301
 H         2.984283         0.716279        -2.792236
