19
Iteration:  2300charge 0 multiplicity 1
 C        -0.091531         0.244444         0.224929
 C         1.352934        -0.166974        -0.224612
 C         1.702860        -1.584282        -0.706636
 C         3.094496        -1.060294        -1.045398
 C         3.554801        -0.223541         0.157556
 C         3.941580         1.042594        -0.718974
 C         2.949133         0.411324        -1.715127
 O         1.594266         0.779354        -1.302639
 O         2.357235         0.120269         0.858488
 H        -0.177138        -0.161945         1.287157
 H        -0.236435         1.357495         0.376561
 H        -0.851037        -0.221025        -0.461175
 H         1.700371        -2.382784         0.077351
 H         1.249949        -2.033557        -1.638084
 H         3.886459        -1.701270        -1.417661
 H         4.277640        -0.610478         0.907915
 H         3.602208         2.051567        -0.440830
 H         4.991925         1.029355        -0.933345
 H         2.889374         0.580350        -2.776874
