19
Iteration:   632charge 0 multiplicity 1
 C         0.004018         0.191041         0.372762
 C         1.341712        -0.173079        -0.219619
 C         1.733861        -1.509623        -0.755630
 C         3.112141        -1.063197        -1.170313
 C         3.614693        -0.251186         0.135123
 C         3.942875         0.975808        -0.742696
 C         2.886213         0.509390        -1.735883
 O         1.524444         0.880605        -1.219511
 O         2.308827        -0.031055         0.827177
 H        -0.217894        -0.267147         1.363225
 H         0.133719         1.275711         0.566810
 H        -0.892703         0.147070        -0.268762
 H         1.714498        -2.220745         0.113108
 H         1.029087        -1.873958        -1.515142
 H         3.879090        -1.680054        -1.690900
 H         4.244047        -0.738168         0.871069
 H         3.756243         2.100916        -0.466182
 H         5.026674         0.916475        -1.077127
 H         2.973382         0.853161        -2.689062
