19
Iteration:   811charge 0 multiplicity 1
 C        -0.066780         0.078559         0.463125
 C         1.298545        -0.028617        -0.185457
 C         1.746053        -1.416294        -0.831611
 C         3.106725        -1.017825        -1.117621
 C         3.651421        -0.280211         0.128477
 C         3.941039         0.935020        -0.694864
 C         2.884730         0.366767        -1.675251
 O         1.560655         0.844163        -1.233345
 O         2.360043         0.112287         0.719276
 H        -0.307863        -0.504698         1.406193
 H        -0.275899         1.110512         0.603107
 H        -0.580565        -0.436079        -0.338644
 H         1.510423        -2.245338        -0.206165
 H         1.184668        -1.567302        -1.775039
 H         3.884389        -1.615449        -1.603845
 H         4.277861        -0.812772         0.893739
 H         3.796152         2.038160        -0.353351
 H         4.888576         0.702978        -1.265658
 H         2.759820         0.643951        -2.640572
