19
Iteration:  2145charge 0 multiplicity 1
 C        -0.013194         0.145738         0.317785
 C         1.361896        -0.117077        -0.132958
 C         1.568577        -1.471885        -0.870772
 C         3.113943        -1.026403        -1.057451
 C         3.578791        -0.120198         0.263404
 C         3.953711         0.982989        -0.739800
 C         3.011948         0.367297        -1.735018
 O         1.623009         0.730118        -1.346182
 O         2.303234         0.118213         0.861802
 H        -0.338263        -0.458792         1.144582
 H        -0.320951         1.137812         0.568543
 H        -0.909424        -0.203898        -0.335909
 H         1.720414        -2.388759        -0.233720
 H         0.826844        -1.686481        -1.637581
 H         3.784106        -1.790307        -1.498995
 H         4.307633        -0.379368         1.040445
 H         3.786818         1.986029        -0.510271
 H         4.964756         0.735541        -1.039024
 H         3.061531         0.611993        -2.753750
