19
Iteration:  2430
 C        -0.064958         0.228790         0.312748
 C         1.342376        -0.170649        -0.133981
 C         1.730254        -1.546201        -0.906049
 C         3.121392        -1.052580        -1.012915
 C         3.543034        -0.127757         0.229373
 C         3.918641         0.972622        -0.770904
 C         2.948352         0.318457        -1.767476
 O         1.615047         0.666180        -1.287398
 O         2.322739         0.238429         0.917758
 H        -0.612644        -0.545975         0.955592
 H        -0.001341         1.331528         0.625744
 H        -0.931947         0.261939        -0.454729
 H         1.616340        -2.456910        -0.326590
 H         1.207089        -1.524399        -1.874885
 H         3.926724        -1.633484        -1.439063
 H         4.251558        -0.653932         0.902750
 H         3.735736         2.040028        -0.458876
 H         4.977700         1.030531        -1.044913
 H         2.966901         0.462892        -2.837207
