19
Iteration:   226
 C         0.024924         0.226303         0.473153
 C         1.317459        -0.229637        -0.116886
 C         1.749471        -1.463853        -0.881266
 C         3.149836        -0.938932        -1.196813
 C         3.555033        -0.233705         0.222046
 C         3.953847         0.913812        -0.725087
 C         2.873645         0.469651        -1.766023
 O         1.508614         0.762511        -1.278951
 O         2.320620         0.044017         0.841662
 H        -0.193744        -0.118086         1.479883
 H         0.083337         1.342484         0.291667
 H        -0.877251        -0.032727        -0.245026
 H         1.768723        -2.351365        -0.203534
 H         1.065760        -1.610274        -1.779753
 H         3.831228        -1.531007        -1.770673
 H         4.254298        -0.751356         0.858957
 H         3.881088         1.886490        -0.393394
 H         5.004313         0.740714        -1.009724
 H         3.027127         0.852897        -2.801831
