19
Iteration:  2385charge 0 multiplicity 1
 C        -0.116030         0.109582         0.309908
 C         1.255226        -0.053925        -0.215694
 C         1.747354        -1.540101        -0.605823
 C         3.124607        -0.984589        -1.164186
 C         3.471631        -0.249692         0.175147
 C         4.002191         0.922828        -0.735489
 C         2.973936         0.406247        -1.773195
 O         1.643315         0.787614        -1.373173
 O         2.308244         0.188002         0.899615
 H        -0.370210        -0.801535         0.897976
 H        -0.284440         1.071551         0.817912
 H        -0.978708         0.082050        -0.476240
 H         1.960985        -2.147402         0.250237
 H         1.221987        -2.027767        -1.387141
 H         3.947832        -1.657492        -1.432855
 H         4.327755        -0.627783         0.728012
 H         3.804997         1.944663        -0.356212
 H         5.093078         0.876560        -1.016147
 H         3.149612         0.619199        -2.803295
