19
Iteration:    11
 C        -0.137784         0.143038         0.449125
 C         1.317348        -0.080729        -0.229165
 C         1.732415        -1.488519        -0.759767
 C         3.116269        -1.047790        -1.179262
 C         3.623570        -0.224955         0.116263
 C         4.037269         0.952943        -0.721459
 C         2.930631         0.395181        -1.758447
 O         1.583573         0.916261        -1.202788
 O         2.302614         0.021078         0.762830
 H        -0.154163        -0.572194         1.215818
 H        -0.486840         1.047013         0.889340
 H        -0.918744        -0.222097        -0.212910
 H         1.723479        -2.188339         0.042510
 H         1.110830        -1.869249        -1.552047
 H         3.930008        -1.692245        -1.447989
 H         4.206717        -0.503889         0.961746
 H         3.658681         1.898192        -0.424514
 H         5.118945         0.940648        -1.050780
 H         2.805505         0.639245        -2.857880
