19
Iteration:  3615
 C        -0.082716         0.139218         0.289855
 C         1.283219        -0.092929        -0.160266
 C         1.786067        -1.485653        -0.673620
 C         3.155644        -1.051087        -0.999967
 C         3.550078        -0.160302         0.219657
 C         3.918392         0.978313        -0.728617
 C         2.966103         0.332989        -1.814976
 O         1.605827         0.789594        -1.458178
 O         2.268021         0.112716         0.895141
 H        -0.422326        -0.754371         0.909910
 H        -0.100743         1.092120         0.893398
 H        -0.800278         0.304213        -0.496848
 H         1.716267        -2.356027        -0.088914
 H         1.197520        -1.824105        -1.485697
 H         4.014786        -1.699833        -1.355675
 H         4.158857        -0.845189         0.809914
 H         3.690008         2.037038        -0.367735
 H         4.991819         1.213430        -0.988066
 H         3.255930         0.730216        -2.872655
