19
Iteration:  1879charge 0 multiplicity 1
 C        -0.078824         0.103414         0.303501
 C         1.304194        -0.115482        -0.265308
 C         1.734918        -1.525571        -0.657130
 C         3.093085        -1.101416        -1.045406
 C         3.587417        -0.184362         0.123607
 C         3.987285         1.001626        -0.746015
 C         2.938251         0.431195        -1.696603
 O         1.641884         0.885722        -1.322565
 O         2.266745         0.085382         0.816738
 H        -0.212933        -0.552022         1.299869
 H        -0.050878         1.209512         0.707604
 H        -0.976208        -0.040209        -0.276978
 H         1.535362        -2.257396         0.154755
 H         1.133042        -1.942355        -1.437184
 H         3.874587        -1.782723        -1.403564
 H         4.236321        -0.725248         0.815759
 H         3.855537         2.029326        -0.388521
 H         4.843574         0.698470        -1.254991
 H         3.035997         0.777585        -2.791861
