19
Iteration:  1624charge 0 multiplicity 1
 C        -0.081058         0.162516         0.256690
 C         1.358269        -0.119584        -0.181557
 C         1.658521        -1.465732        -0.784990
 C         3.092453        -1.030034        -1.024939
 C         3.595473        -0.253361         0.144186
 C         3.985956         1.026896        -0.734989
 C         2.900186         0.486576        -1.694364
 O         1.505073         0.730670        -1.327131
 O         2.442596         0.091220         0.911031
 H        -0.289703        -0.602430         1.025702
 H        -0.148211         1.193982         0.715235
 H        -0.825893         0.040446        -0.780052
 H         1.578155        -2.390269        -0.091778
 H         0.977031        -1.774768        -1.635176
 H         3.773928        -1.770230        -1.392038
 H         4.376647        -0.708686         0.859627
 H         4.023232         1.973524        -0.208901
 H         4.981876         0.753141        -1.195528
 H         2.881211         0.710905        -2.860248
