19
Iteration:  4612
 C        -0.035168         0.149899         0.297347
 C         1.341911        -0.143877        -0.242043
 C         1.715228        -1.516928        -0.722390
 C         3.169608        -1.023677        -1.011802
 C         3.523239        -0.195362         0.304824
 C         4.001217         0.990266        -0.741430
 C         2.967585         0.422206        -1.639660
 O         1.552569         0.672367        -1.353140
 O         2.239688         0.220224         0.723160
 H        -0.570643        -0.634985         0.903532
 H         0.019291         1.102015         0.855732
 H        -0.755082         0.238502        -0.633625
 H         1.605120        -2.437913        -0.039965
 H         1.322492        -1.779701        -1.636265
 H         3.913330        -1.755348        -1.474473
 H         4.172366        -0.444240         1.177862
 H         3.923324         2.093168        -0.452893
 H         4.995428         0.924256        -1.275953
 H         3.098315         0.484131        -2.747591
