19
Iteration:   800
 C        -0.057810         0.093027         0.430549
 C         1.332570        -0.176136        -0.164543
 C         1.728037        -1.463969        -0.820641
 C         3.152165        -0.981420        -1.081999
 C         3.640181        -0.280299         0.196539
 C         3.977631         0.875911        -0.741772
 C         2.794950         0.477377        -1.692679
 O         1.542242         0.879295        -1.297464
 O         2.342039         0.094460         0.742248
 H        -0.028716        -0.349659         1.469271
 H        -0.232396         1.144541         0.504995
 H        -0.934746        -0.152257        -0.123613
 H         1.564135        -2.316928        -0.197250
 H         1.091816        -1.409081        -1.716280
 H         3.759516        -1.513602        -1.814831
 H         4.382191        -0.509993         0.996252
 H         4.021999         1.882294        -0.131358
 H         4.916442         0.805859        -1.385327
 H         3.103985         0.565186        -2.689571
