19
Iteration:  1874
 C        -0.047751         0.069389         0.282785
 C         1.268660        -0.075564        -0.221442
 C         1.751071        -1.500195        -0.693830
 C         3.103994        -1.074414        -0.998950
 C         3.595614        -0.167621         0.123597
 C         3.967703         0.968854        -0.784005
 C         2.895684         0.399915        -1.693123
 O         1.644497         0.895049        -1.288423
 O         2.274070         0.050408         0.803839
 H        -0.206914        -0.486470         1.161788
 H        -0.037608         1.059743         0.652470
 H        -0.951906         0.025811        -0.413828
 H         1.472456        -1.989769         0.246888
 H         1.151909        -1.846009        -1.575809
 H         3.838804        -1.825092        -1.382161
 H         4.234642        -0.668696         0.872405
 H         3.914920         2.015788        -0.480773
 H         5.024834         0.813358        -1.226207
 H         3.049099         0.592785        -2.747858
