19
Iteration:   781
 C        -0.004023         0.143125         0.468116
 C         1.288511        -0.099412        -0.208365
 C         1.696864        -1.530839        -0.853249
 C         3.049159        -0.984755        -1.184150
 C         3.515800        -0.214919         0.120864
 C         4.048702         1.022985        -0.713218
 C         2.976881         0.469429        -1.748338
 O         1.543384         0.744801        -1.255979
 O         2.324266         0.054193         0.888068
 H        -0.025642        -0.384030         1.502653
 H        -0.251956         1.236888         0.511008
 H        -0.723907        -0.186035        -0.244570
 H         1.743479        -2.266540        -0.032826
 H         1.043103        -1.851356        -1.695724
 H         3.817958        -1.713403        -1.482694
 H         4.293280        -0.792208         0.677453
 H         3.977296         2.085099        -0.413043
 H         5.100521         0.693121        -1.131413
 H         2.884407         0.987334        -2.846642
