19
Iteration:  4564
 C        -0.099216         0.126286         0.226346
 C         1.355115        -0.115626        -0.184616
 C         1.712077        -1.478746        -0.745784
 C         3.073471        -1.045960        -1.018091
 C         3.588368        -0.110750         0.199462
 C         3.928815         1.019217        -0.707382
 C         2.981876         0.295792        -1.716303
 O         1.689181         0.744780        -1.341111
 O         2.246606         0.135950         0.841172
 H        -0.251098        -0.372193         1.226402
 H        -0.382005         1.213834         0.408547
 H        -0.827327        -0.374970        -0.414582
 H         1.682469        -2.166439         0.027183
 H         0.924766        -1.798712        -1.475016
 H         3.755460        -1.708987        -1.467838
 H         4.381398        -0.464924         0.873404
 H         3.589489         2.036310        -0.489728
 H         5.022355         1.100012        -0.962128
 H         3.255474         0.422628        -2.835543
