19
Iteration:  4491
 C        -0.025062         0.115476         0.300751
 C         1.259757        -0.043338        -0.283283
 C         1.738316        -1.454413        -0.739165
 C         3.157820        -1.056323        -0.990870
 C         3.533554        -0.203288         0.232724
 C         3.907620         0.962863        -0.717025
 C         2.957305         0.335099        -1.705866
 O         1.652567         0.737987        -1.369304
 O         2.253064         0.190081         0.795361
 H        -0.075312        -0.441290         1.244182
 H        -0.188344         1.196206         0.574644
 H        -0.845264        -0.257340        -0.361530
 H         1.637753        -2.264721         0.039168
 H         1.276026        -1.941531        -1.541484
 H         3.861248        -1.749664        -1.429088
 H         4.177400        -0.363388         1.106466
 H         3.817185         1.971710        -0.243463
 H         4.957110         0.930882        -1.072137
 H         3.145287         0.461062        -2.771309
