19
Iteration:   163charge 0 multiplicity 1
 C        -0.019561         0.065369         0.387329
 C         1.347608        -0.096083        -0.204068
 C         1.731256        -1.514906        -0.731604
 C         3.061793        -0.951101        -1.181959
 C         3.561164        -0.260032         0.122620
 C         4.031095         0.874311        -0.765448
 C         2.868115         0.524696        -1.717600
 O         1.584081         0.822503        -1.253296
 O         2.286764         0.148981         0.878632
 H        -0.239783        -0.859531         0.887011
 H        -0.212993         0.882513         1.088745
 H        -0.761431         0.077663        -0.440729
 H         1.769137        -2.192020         0.074063
 H         1.160004        -1.829278        -1.606603
 H         3.767850        -1.501462        -1.808704
 H         4.172328        -0.863789         0.766101
 H         4.094990         1.920827        -0.370510
 H         5.060264         0.546139        -1.114341
 H         2.883340         0.836402        -2.852638
