19
Iteration:  3482charge 0 multiplicity 1
 C        -0.010910         0.178066         0.296748
 C         1.316911        -0.145769        -0.226547
 C         1.724067        -1.520642        -0.682018
 C         3.085847        -1.006924        -0.996983
 C         3.538227        -0.200152         0.181812
 C         3.987392         1.040995        -0.684860
 C         2.956734         0.431911        -1.732598
 O         1.630345         0.741949        -1.398796
 O         2.192714         0.073264         0.803485
 H        -0.091358        -0.387085         1.216046
 H        -0.065530         1.213016         0.623037
 H        -0.852567        -0.186841        -0.391003
 H         1.800408        -2.309552         0.044904
 H         1.393004        -1.849914        -1.604836
 H         3.925156        -1.542493        -1.243151
 H         4.246235        -0.359375         0.976820
 H         3.997888         2.072307        -0.306380
 H         4.955920         0.738715        -1.230087
 H         2.942901         0.497822        -2.895298
