19
Iteration:   204
 C        -0.033063         0.161296         0.398237
 C         1.293886        -0.096865        -0.163715
 C         1.659807        -1.533997        -0.918557
 C         3.102564        -1.089000        -1.063772
 C         3.628286        -0.216758         0.098844
 C         3.947586         1.034172        -0.753486
 C         2.860000         0.381408        -1.649451
 O         1.619837         0.831481        -1.170799
 O         2.381599         0.084416         0.809207
 H        -0.024621        -0.507382         1.255344
 H        -0.251061         1.263467         0.578351
 H        -0.954118        -0.179548        -0.263902
 H         1.356902        -2.492093        -0.418336
 H         1.281939        -1.469683        -1.993016
 H         3.760886        -1.688782        -1.663217
 H         4.335232        -0.671151         0.792659
 H         3.705965         1.935281        -0.339729
 H         4.930252         1.163367        -1.232217
 H         2.938012         0.570173        -2.763736
