19
Iteration:  4196charge 0 multiplicity 1
 C        -0.089967         0.145391         0.230074
 C         1.326684        -0.093695        -0.201460
 C         1.696782        -1.533529        -0.682704
 C         3.185122        -1.036397        -1.017752
 C         3.576170        -0.156208         0.166511
 C         3.977763         0.997913        -0.731092
 C         2.938253         0.334993        -1.745742
 O         1.615758         0.742238        -1.272247
 O         2.245019         0.150481         0.813435
 H        -0.519668        -0.571062         0.925725
 H        -0.051709         1.130510         0.672795
 H        -0.720864         0.316942        -0.594385
 H         1.863636        -2.175624         0.159903
 H         1.241788        -1.725167        -1.653816
 H         3.982416        -1.676518        -1.454516
 H         4.130065        -0.702626         0.944814
 H         3.665511         1.976602        -0.389366
 H         5.001738         0.962863        -1.107303
 H         2.911023         0.538600        -2.839420
