19
Iteration:  4865
 C        -0.173700         0.153291         0.267338
 C         1.256169        -0.136821        -0.156097
 C         1.760571        -1.487888        -0.678866
 C         3.175778        -0.990088        -1.012615
 C         3.502057        -0.119574         0.206321
 C         4.049615         0.976091        -0.816188
 C         2.991273         0.357414        -1.762227
 O         1.672500         0.703434        -1.321137
 O         2.223040         0.121054         0.817063
 H        -0.623365        -0.410611         1.092608
 H        -0.070140         1.143530         0.822401
 H        -0.864101         0.352695        -0.552613
 H         1.865341        -2.292357        -0.009128
 H         1.203574        -1.798096        -1.431568
 H         3.954796        -1.689813        -1.371476
 H         4.059898        -0.454146         1.077655
 H         3.965911         2.057114        -0.620606
 H         5.091337         0.721522        -1.086107
 H         2.953298         0.408148        -2.893745
