19
Iteration:   364charge 0 multiplicity 1
 C        -0.066415         0.228681         0.500605
 C         1.274912        -0.115313        -0.102608
 C         1.675944        -1.514371        -0.865980
 C         3.133835        -1.026649        -1.071002
 C         3.676270        -0.217300         0.137715
 C         3.970503         1.022483        -0.773345
 C         2.905448         0.512549        -1.680914
 O         1.505401         0.710965        -1.382449
 O         2.377172        -0.035298         0.834033
 H        -0.284371        -0.522365         1.154331
 H        -0.143948         1.247300         0.828793
 H        -0.748057         0.209624        -0.379104
 H         1.460512        -2.351682        -0.216852
 H         1.164262        -1.403991        -1.779744
 H         3.842034        -1.533295        -1.679537
 H         4.379547        -0.618869         0.948194
 H         3.871777         2.087535        -0.386619
 H         5.001380         0.892859        -1.191586
 H         3.095178         0.752851        -2.720108
