19
Iteration:   840charge 0 multiplicity 1
 C        -0.021300         0.063268         0.419391
 C         1.322349        -0.154994        -0.150549
 C         1.645461        -1.482712        -0.716890
 C         2.996697        -0.935724        -1.219635
 C         3.600038        -0.157538         0.147061
 C         3.970812         0.981364        -0.767488
 C         2.943487         0.452073        -1.788544
 O         1.694539         0.831319        -1.307302
 O         2.299002        -0.003041         0.929023
 H        -0.285293        -0.555185         1.221045
 H        -0.044529         1.151784         0.630071
 H        -0.859887        -0.116794        -0.449417
 H         1.714258        -2.328184         0.028270
 H         0.915386        -1.698001        -1.552133
 H         3.770636        -1.605607        -1.605965
 H         4.299252        -0.692522         0.789372
 H         3.938891         2.062502        -0.542778
 H         4.933121         0.815164        -1.094330
 H         2.840981         0.786074        -2.912111
