19
Iteration:   761charge 0 multiplicity 1
 C        -0.077009         0.161559         0.419372
 C         1.312449        -0.151426        -0.119917
 C         1.687160        -1.447632        -0.766418
 C         3.109963        -1.008640        -1.205684
 C         3.599238        -0.217685         0.123865
 C         3.893756         1.001178        -0.757195
 C         2.937803         0.454127        -1.769884
 O         1.681463         0.851553        -1.268161
 O         2.308129        -0.030728         0.851116
 H        -0.111509        -0.418297         1.383670
 H        -0.016159         1.246499         0.737273
 H        -0.921979        -0.135709        -0.231450
 H         1.778356        -2.294756        -0.029326
 H         1.074621        -1.812734        -1.611158
 H         3.838947        -1.660392        -1.718087
 H         4.218255        -0.622889         0.912819
 H         3.529647         1.888493        -0.398266
 H         4.964826         0.923950        -0.987909
 H         2.861185         0.516578        -2.939612
