19
Iteration:  1669charge 0 multiplicity 1
 C        -0.053049         0.210279         0.463305
 C         1.234896        -0.139884        -0.252558
 C         1.708776        -1.567233        -0.799864
 C         3.109395        -0.994548        -1.118019
 C         3.479631        -0.130352         0.178990
 C         3.966965         1.010116        -0.751961
 C         3.064776         0.424384        -1.796176
 O         1.645439         0.735066        -1.297588
 O         2.280515         0.051013         0.896641
 H        -0.143713        -0.523000         1.241692
 H         0.125631         1.215412         0.839271
 H        -0.825900         0.171828        -0.421942
 H         1.525898        -2.353539         0.010368
 H         1.130069        -1.891024        -1.702528
 H         3.918541        -1.680579        -1.410651
 H         4.188538        -0.734543         0.788711
 H         3.675315         2.038848        -0.521528
 H         5.037357         0.935161        -1.054401
 H         3.022281         0.750132        -2.901574
