19
Iteration:  3146
 C        -0.130443         0.129886         0.354107
 C         1.317844        -0.116869        -0.225059
 C         1.768235        -1.543460        -0.785713
 C         3.145051        -1.040041        -1.039925
 C         3.503880        -0.141181         0.225504
 C         4.001264         0.945598        -0.736678
 C         2.995560         0.428966        -1.780476
 O         1.612178         0.729620        -1.341202
 O         2.260104         0.204398         0.854629
 H        -0.184996        -0.240708         1.381934
 H        -0.357622         1.237214         0.360472
 H        -0.748884        -0.428382        -0.355873
 H         1.549941        -2.281396         0.058598
 H         0.993073        -1.727167        -1.622480
 H         3.892068        -1.827302        -1.419952
 H         4.271746        -0.493773         0.957893
 H         3.990551         1.913291        -0.209702
 H         5.034065         0.693924        -1.128398
 H         2.993574         0.520492        -2.844998
