19
Iteration:  4328
 C        -0.094293         0.211395         0.215433
 C         1.337483        -0.166421        -0.156171
 C         1.804146        -1.459372        -0.697754
 C         3.129576        -1.016458        -1.087705
 C         3.557132        -0.205638         0.204193
 C         3.935827         0.932800        -0.755896
 C         2.952370         0.399578        -1.728947
 O         1.620819         0.724736        -1.300873
 O         2.247168         0.183614         0.872051
 H        -0.433104        -0.118268         1.176030
 H        -0.336550         1.273021         0.162095
 H        -0.658327        -0.415137        -0.419986
 H         1.522158        -2.497831        -0.018184
 H         1.142231        -1.691100        -1.645423
 H         3.968426        -1.615906        -1.314182
 H         4.227410        -0.774903         0.851526
 H         3.763305         1.927917        -0.337507
 H         4.907449         0.770475        -1.163956
 H         3.150244         0.522303        -2.807908
