19
Iteration:  1369charge 0 multiplicity 1
 C        -0.023164         0.144800         0.388350
 C         1.349018        -0.140088        -0.197356
 C         1.654574        -1.531316        -0.785809
 C         3.083359        -0.985219        -1.160960
 C         3.473601        -0.249221         0.156161
 C         4.015319         1.067475        -0.783062
 C         2.983448         0.441651        -1.728608
 O         1.661985         0.790880        -1.291821
 O         2.238183         0.078794         0.892680
 H        -0.085482        -0.428775         1.368560
 H        -0.217107         1.183377         0.739854
 H        -0.812626        -0.297066        -0.184116
 H         1.751206        -2.341466        -0.065598
 H         1.099414        -1.877340        -1.639232
 H         3.924282        -1.683482        -1.479478
 H         4.038627        -0.937378         0.758054
 H         3.905952         2.158852        -0.531956
 H         5.126845         1.000348        -0.960166
 H         3.037108         0.595440        -2.750070
