19
Iteration:  2441charge 0 multiplicity 1
 C        -0.086068         0.190893         0.351130
 C         1.296484        -0.148583        -0.138908
 C         1.707806        -1.535762        -0.808277
 C         3.156364        -1.023243        -1.145906
 C         3.594589        -0.189177         0.286409
 C         3.955995         1.001417        -0.725001
 C         2.937304         0.308982        -1.791774
 O         1.622799         0.725337        -1.372036
 O         2.253346         0.212263         0.897086
 H        -0.396084        -0.231812         1.358950
 H        -0.056532         1.277087         0.749164
 H        -0.612937         0.140788        -0.668099
 H         1.923544        -2.432851        -0.281309
 H         1.084254        -1.733121        -1.704383
 H         3.795395        -1.830410        -1.451438
 H         4.397019        -0.413376         1.029156
 H         3.578040         1.955211        -0.262522
 H         4.960484         0.895823        -1.132774
 H         3.162750         0.377564        -2.833380
