19
Iteration:   641charge 0 multiplicity 1
 C        -0.095564         0.223252         0.396385
 C         1.315413        -0.128696        -0.147711
 C         1.714461        -1.494273        -0.807985
 C         3.138811        -0.980747        -1.229183
 C         3.569052        -0.298218         0.125035
 C         3.952807         1.006295        -0.750892
 C         2.899395         0.450172        -1.736622
 O         1.596574         0.784205        -1.218955
 O         2.344166         0.013349         0.873491
 H        -0.264268        -0.415226         1.340620
 H        -0.051662         1.288296         0.700877
 H        -0.877881         0.127586        -0.328862
 H         1.901899        -2.302621        -0.068683
 H         1.084442        -1.823829        -1.673609
 H         3.847856        -1.686703        -1.706204
 H         4.324426        -0.518569         0.860329
 H         3.731234         1.934389        -0.265696
 H         4.966558         0.883728        -1.200892
 H         2.959459         0.676270        -2.781112
