19
Iteration:  1296charge 0 multiplicity 1
 C        -0.063525         0.183929         0.341241
 C         1.357639        -0.075595        -0.189204
 C         1.772571        -1.600790        -0.759559
 C         3.117500        -1.068254        -1.149765
 C         3.516555        -0.211400         0.167994
 C         3.906384         0.981977        -0.765773
 C         2.911394         0.381557        -1.758885
 O         1.614535         0.917215        -1.192152
 O         2.300479         0.047051         0.826454
 H        -0.410371        -0.594617         0.964815
 H        -0.023365         1.030702         0.952380
 H        -0.723537         0.230721        -0.595744
 H         1.794944        -2.321893         0.089745
 H         1.045654        -2.004981        -1.527027
 H         3.913538        -1.721593        -1.533208
 H         4.297683        -0.559550         0.854278
 H         3.822198         2.006997        -0.414635
 H         4.952208         1.043346        -1.180804
 H         3.073784         0.628617        -2.853021
