19
Iteration:  2586charge 0 multiplicity 1
 C        -0.068807         0.182587         0.351332
 C         1.352459        -0.102883        -0.213322
 C         1.736118        -1.464520        -0.751404
 C         3.189142        -1.078042        -0.943319
 C         3.582324        -0.208918         0.161529
 C         3.962326         0.969188        -0.718583
 C         2.870178         0.393131        -1.734588
 O         1.556900         0.701143        -1.363328
 O         2.283450         0.155834         0.786096
 H        -0.543057        -0.616736         0.927042
 H        -0.194461         1.184274         0.826889
 H        -0.687543         0.472005        -0.487494
 H         1.584845        -2.321584        -0.084313
 H         1.398142        -1.732598        -1.732236
 H         4.030530        -1.797490        -1.231832
 H         4.335155        -0.379679         0.915450
 H         3.820717         1.932489        -0.261402
 H         4.973912         0.881419        -1.144016
 H         2.955826         0.637567        -2.778421
