19
Iteration:   292
 C        -0.060883         0.094277         0.416154
 C         1.334008        -0.115045        -0.069487
 C         1.631092        -1.455227        -0.927666
 C         3.122036        -0.972218        -1.123634
 C         3.536921        -0.175711         0.183909
 C         4.070974         0.936248        -0.847594
 C         2.917389         0.445628        -1.758369
 O         1.543368         0.736864        -1.225559
 O         2.376897         0.113565         0.944559
 H        -0.317647        -0.808578         1.056972
 H        -0.234154         1.116372         0.867183
 H        -0.713985         0.112001        -0.554462
 H         1.476557        -2.360052        -0.288789
 H         1.114383        -1.490662        -1.957385
 H         3.931388        -1.590860        -1.514912
 H         4.117367        -0.738595         0.877257
 H         4.098943         1.962613        -0.791800
 H         4.999386         0.535508        -1.327068
 H         2.793707         0.822604        -2.802883
