19
Iteration:  3730
 C        -0.131973         0.147549         0.308382
 C         1.320485        -0.086055        -0.225305
 C         1.745815        -1.430222        -0.784421
 C         3.175291        -1.012290        -1.006476
 C         3.587529        -0.178967         0.191119
 C         3.983237         1.002664        -0.687964
 C         2.975327         0.363452        -1.750483
 O         1.578305         0.663150        -1.328450
 O         2.256197         0.133187         0.860863
 H        -0.157436        -0.281240         1.319101
 H        -0.327592         1.219549         0.172928
 H        -0.918337        -0.255305        -0.412869
 H         1.813303        -2.351278        -0.093178
 H         1.144936        -1.762665        -1.700800
 H         3.779965        -1.716324        -1.555992
 H         4.139197        -0.659658         1.044123
 H         3.889797         2.028915        -0.394585
 H         4.983119         0.907320        -1.107777
 H         3.038970         0.715562        -2.789149
