19
Iteration:  2448
 C        -0.076072         0.210189         0.359817
 C         1.315959        -0.128824        -0.155077
 C         1.745930        -1.490266        -0.721768
 C         3.136378        -1.038345        -1.124747
 C         3.588154        -0.185600         0.219030
 C         3.937015         0.967647        -0.706814
 C         2.981520         0.365925        -1.736479
 O         1.604222         0.742630        -1.410441
 O         2.249041         0.134050         0.837451
 H        -0.253852        -0.443090         1.173383
 H        -0.041201         1.230605         0.539214
 H        -0.809564        -0.008742        -0.419337
 H         1.668514        -2.366715         0.000745
 H         1.074394        -1.861767        -1.487988
 H         3.856934        -1.764335        -1.576657
 H         4.144655        -0.421602         1.137499
 H         3.706574         1.990741        -0.417509
 H         5.020201         0.973374        -1.015205
 H         3.041181         0.497115        -2.841114
