19
Iteration:   661charge 0 multiplicity 1
 C        -0.107941         0.142260         0.426336
 C         1.391544        -0.131831        -0.091365
 C         1.640771        -1.461891        -0.903768
 C         3.066803        -1.018814        -1.102288
 C         3.602743        -0.203453         0.129355
 C         4.002810         0.998399        -0.750474
 C         2.905673         0.409720        -1.766372
 O         1.567939         0.747471        -1.258557
 O         2.406824         0.093681         0.890428
 H        -0.446240        -0.714629         1.123996
 H        -0.392563         1.119493         0.842232
 H        -0.691467         0.245854        -0.443321
 H         1.469580        -2.440587        -0.451809
 H         1.080800        -1.263821        -1.851976
 H         3.870513        -1.649574        -1.498958
 H         4.278330        -0.827918         0.774352
 H         3.717956         1.929832        -0.508083
 H         5.064114         0.873150        -0.961685
 H         3.035312         0.716586        -2.889256
