19
Iteration:   574charge 0 multiplicity 1
 C        -0.075954         0.060873         0.426219
 C         1.329321        -0.093703        -0.042326
 C         1.621756        -1.464870        -0.920981
 C         3.053723        -1.026865        -1.123791
 C         3.600428        -0.216094         0.111901
 C         3.976809         0.957362        -0.768181
 C         2.941893         0.412749        -1.765972
 O         1.652209         0.826912        -1.240104
 O         2.343067         0.135840         0.862258
 H        -0.164271        -0.685983         1.355376
 H        -0.288149         1.079776         0.804514
 H        -0.797146        -0.256407        -0.308346
 H         1.483045        -2.435246        -0.391475
 H         0.941173        -1.368918        -1.836232
 H         3.882847        -1.631311        -1.489945
 H         4.327122        -0.689758         0.863873
 H         3.874202         1.965273        -0.431882
 H         5.084206         0.723908        -1.101757
 H         2.966252         0.607273        -2.881768
