19
Iteration:  2554charge 0 multiplicity 1
 C        -0.085100         0.175711         0.315371
 C         1.235714        -0.085282        -0.260063
 C         1.756069        -1.575200        -0.681691
 C         3.115077        -1.070082        -1.072610
 C         3.564102        -0.215534         0.157532
 C         3.959296         0.976379        -0.724835
 C         2.986400         0.439908        -1.788838
 O         1.617002         0.719871        -1.376515
 O         2.294449         0.180877         0.915604
 H        -0.316850        -0.371362         1.240145
 H         0.017648         1.220084         0.698129
 H        -0.886807         0.133278        -0.421700
 H         1.850556        -2.132652         0.141647
 H         1.186157        -1.921307        -1.513547
 H         3.980973        -1.746181        -1.380445
 H         4.196210        -0.652308         0.917967
 H         3.662689         1.904215        -0.283369
 H         5.016785         0.923658        -0.982961
 H         2.936543         0.739412        -2.848601
