19
Iteration:    47charge 0 multiplicity 1
 C         0.003101         0.046945         0.334498
 C         1.360046        -0.079076        -0.107957
 C         1.647608        -1.410270        -0.835841
 C         3.062580        -0.988247        -1.178219
 C         3.567746        -0.180882         0.201382
 C         4.069092         0.879985        -0.756782
 C         2.861359         0.464342        -1.757951
 O         1.558560         0.787354        -1.239935
 O         2.317605         0.106047         0.857740
 H         0.107066        -0.481319         1.393498
 H        -0.366750         1.076584         0.451133
 H        -0.567629        -0.588638        -0.318731
 H         1.552055        -2.389705        -0.178178
 H         0.874127        -1.382459        -1.620186
 H         3.819052        -1.697432        -1.562899
 H         4.306646        -0.643496         0.901949
 H         4.099751         1.951060        -0.342625
 H         5.023932         0.645920        -1.100935
 H         2.879420         0.687479        -2.760251
