19
Iteration:  1448charge 0 multiplicity 1
 C        -0.094779         0.069068         0.476579
 C         1.348640        -0.016526        -0.290209
 C         1.715636        -1.434455        -0.739530
 C         3.126760        -1.035286        -1.090683
 C         3.552757        -0.258169         0.191999
 C         4.001238         0.949653        -0.758602
 C         2.936400         0.480489        -1.711465
 O         1.584192         0.806591        -1.343268
 O         2.269952         0.055165         0.819274
 H        -0.182271        -0.775321         1.026926
 H        -0.223895         0.978591         0.949960
 H        -0.810081         0.039310        -0.359718
 H         1.817800        -2.140892         0.078010
 H         1.150759        -1.717345        -1.664522
 H         3.844134        -1.709665        -1.568439
 H         4.221514        -0.702910         0.944630
 H         4.010013         2.009843        -0.406534
 H         5.026798         0.753900        -1.232421
 H         3.042299         0.682931        -2.786779
