19
Iteration:  3273charge 0 multiplicity 1
 C        -0.073783         0.100761         0.293861
 C         1.342709        -0.086109        -0.215590
 C         1.669315        -1.518995        -0.688590
 C         3.069276        -1.043400        -0.996224
 C         3.476374        -0.148079         0.235309
 C         3.991858         1.021846        -0.753035
 C         3.033259         0.335688        -1.754381
 O         1.652229         0.770437        -1.328895
 O         2.262064         0.157903         0.800428
 H        -0.052105        -0.575290         1.159238
 H        -0.074693         1.196200         0.578326
 H        -0.635857        -0.169259        -0.576237
 H         1.803964        -2.217513         0.115472
 H         1.261968        -1.870898        -1.597344
 H         3.895227        -1.723029        -1.498892
 H         4.099930        -0.772908         0.918814
 H         3.642375         2.034419        -0.449523
 H         5.017940         0.994994        -1.136505
 H         2.908745         0.573739        -2.976751
