19
Iteration:  1254
 C        -0.013507         0.163811         0.420687
 C         1.350495        -0.132090        -0.081601
 C         1.645012        -1.523806        -0.864122
 C         3.097388        -1.080924        -1.166596
 C         3.558801        -0.179576         0.129174
 C         3.938565         0.979950        -0.688930
 C         2.961558         0.454963        -1.672163
 O         1.568400         0.758135        -1.348704
 O         2.335568         0.140306         0.849122
 H        -0.172067        -0.713682         1.159628
 H         0.067451         1.250643         0.771758
 H        -0.645175         0.068981        -0.658509
 H         1.642354        -2.439543        -0.240541
 H         0.934324        -1.606738        -1.739858
 H         3.936931        -1.643158        -1.523182
 H         4.185151        -0.559599         0.960092
 H         3.899374         1.938150        -0.290373
 H         4.947723         0.742930        -1.008894
 H         2.886148         0.661392        -2.816986
