19
Iteration:  2555charge 0 multiplicity 1
 C        -0.079535         0.172017         0.315514
 C         1.238273        -0.089719        -0.264396
 C         1.748490        -1.576106        -0.678061
 C         3.109474        -1.067521        -1.083639
 C         3.562309        -0.215331         0.164613
 C         3.963768         0.979858        -0.722079
 C         2.988911         0.438100        -1.778668
 O         1.613939         0.715510        -1.380040
 O         2.297277         0.187498         0.917405
 H        -0.335615        -0.364352         1.246112
 H         0.016138         1.212611         0.695431
 H        -0.899176         0.168003        -0.430240
 H         1.859784        -2.193231         0.162491
 H         1.170139        -1.901393        -1.542096
 H         3.996635        -1.740251        -1.403390
 H         4.223144        -0.654557         0.938146
 H         3.651442         1.912749        -0.293377
 H         5.022804         0.927500        -1.004772
 H         2.940770         0.748741        -2.873992
