19
Iteration:  1454charge 0 multiplicity 1
 C        -0.036760         0.059323         0.417643
 C         1.317593        -0.033748        -0.258336
 C         1.669871        -1.473988        -0.781733
 C         3.111146        -0.995958        -1.042954
 C         3.597264        -0.221501         0.225675
 C         4.031914         0.926572        -0.767221
 C         2.895381         0.462497        -1.712911
 O         1.578123         0.845908        -1.353114
 O         2.290374         0.069925         0.797374
 H        -0.094179        -0.886586         1.122251
 H        -0.226902         0.965185         1.126711
 H        -0.842212         0.042613        -0.359978
 H         1.634309        -2.279482        -0.020372
 H         1.115841        -1.795982        -1.642659
 H         3.857222        -1.738824        -1.393695
 H         4.332357        -0.673610         0.895323
 H         3.821784         1.889353        -0.297931
 H         4.977576         0.734476        -1.212503
 H         3.096304         0.679185        -2.756850
