19
Iteration:  4044
 C        -0.129272         0.181012         0.330438
 C         1.372548        -0.053428        -0.222250
 C         1.796172        -1.550643        -0.766786
 C         3.105316        -1.074997        -1.039285
 C         3.565023        -0.162436         0.219096
 C         3.906268         0.974457        -0.689622
 C         2.941228         0.367889        -1.761786
 O         1.633915         0.718056        -1.441564
 O         2.284877         0.180382         0.902189
 H        -0.276482        -0.721736         1.009008
 H        -0.108369         0.992546         1.044862
 H        -0.831056         0.123870        -0.507340
 H         1.657120        -2.413637        -0.139655
 H         1.031567        -1.678942        -1.598977
 H         3.732293        -1.787100        -1.439513
 H         4.213618        -0.567210         0.980922
 H         3.657534         1.964089        -0.259860
 H         5.016071         0.979971        -1.049198
 H         3.128548         0.813229        -2.716303
