19
Iteration:   403
 C        -0.001399         0.109194         0.391939
 C         1.375641        -0.118624        -0.167396
 C         1.661284        -1.526781        -0.752252
 C         3.051491        -0.987577        -1.222926
 C         3.487320        -0.226684         0.127358
 C         3.963760         0.987703        -0.780594
 C         2.948890         0.468649        -1.759701
 O         1.694478         0.829045        -1.192039
 O         2.270941         0.060041         0.859584
 H        -0.111946        -0.460143         1.430538
 H        -0.274411         1.168679         0.644836
 H        -0.754500        -0.315320        -0.239486
 H         1.913576        -2.363559        -0.077183
 H         0.882924        -1.893911        -1.494286
 H         3.831527        -1.595499        -1.797776
 H         4.210002        -0.644820         0.787737
 H         3.645546         1.963350        -0.389987
 H         4.973188         0.944826        -1.167742
 H         3.002463         0.763612        -2.876265
