19
Iteration:  4622charge 0 multiplicity 1
 C        -0.117454         0.139713         0.259664
 C         1.307536        -0.132709        -0.209345
 C         1.769903        -1.514156        -0.770397
 C         3.155809        -1.079278        -0.963467
 C         3.548715        -0.204070         0.231696
 C         3.995289         1.041134        -0.697541
 C         2.961676         0.408983        -1.761696
 O         1.578413         0.653133        -1.351977
 O         2.285657         0.233686         0.799921
 H        -0.478041        -0.689219         0.959724
 H        -0.064014         1.073442         0.899949
 H        -0.878516         0.460776        -0.581106
 H         1.548611        -2.134047         0.123806
 H         1.118725        -1.660193        -1.511336
 H         3.974291        -1.732944        -1.390236
 H         4.229964        -0.613504         1.033159
 H         3.742786         2.099800        -0.339678
 H         5.065525         0.810906        -0.988387
 H         3.065237         0.539480        -2.908351
