19
Iteration:  2567
 C        -0.048591         0.203701         0.312099
 C         1.348614        -0.185562        -0.227777
 C         1.676984        -1.543773        -0.695206
 C         3.096254        -0.997898        -1.153744
 C         3.548077        -0.172909         0.286577
 C         3.988982         1.010502        -0.683667
 C         2.956738         0.367236        -1.666271
 O         1.550902         0.659941        -1.393357
 O         2.335763         0.222214         0.827886
 H        -0.394972        -0.572332         1.026722
 H         0.036787         1.209600         0.744067
 H        -0.821405         0.280586        -0.506831
 H         1.646618        -2.424644        -0.092048
 H         0.978205        -1.826590        -1.511519
 H         3.804363        -1.678724        -1.757681
 H         4.326483        -0.592662         0.987752
 H         3.793613         2.045589        -0.406716
 H         4.964525         1.014066        -1.197681
 H         3.280112         0.515280        -2.765763
