19
Iteration:  4022charge 0 multiplicity 1
 C        -0.067011         0.160327         0.330787
 C         1.272251        -0.167093        -0.239587
 C         1.679366        -1.477341        -0.727393
 C         3.207081        -0.994527        -1.050285
 C         3.561788        -0.153527         0.215086
 C         4.007798         1.012261        -0.686000
 C         2.947124         0.320614        -1.691154
 O         1.568911         0.710379        -1.333032
 O         2.275424         0.157918         0.754733
 H        -0.604843        -0.584497         0.970956
 H         0.074942         1.055887         0.923358
 H        -0.454462         0.225116        -0.692039
 H         1.659265        -2.262574         0.030158
 H         1.095756        -1.883198        -1.640365
 H         3.955047        -1.551149        -1.514846
 H         4.132656        -0.616887         1.017901
 H         3.800455         2.019973        -0.284400
 H         5.090494         0.957763        -1.105746
 H         3.044320         0.598341        -2.736113
