19
Iteration:  1450charge 0 multiplicity 1
 C        -0.079667         0.064323         0.458589
 C         1.346792        -0.014578        -0.290416
 C         1.697445        -1.447421        -0.750746
 C         3.124416        -1.023725        -1.072998
 C         3.567409        -0.246031         0.206599
 C         4.008711         0.939985        -0.765353
 C         2.916614         0.477908        -1.704032
 O         1.581283         0.818579        -1.346974
 O         2.273338         0.057231         0.811004
 H        -0.146220        -0.826981         1.064686
 H        -0.239857         0.982683         1.017697
 H        -0.783507         0.048196        -0.339428
 H         1.780626        -2.208833         0.059854
 H         1.126036        -1.742943        -1.684342
 H         3.837415        -1.712201        -1.484032
 H         4.285070        -0.707990         0.932617
 H         3.928007         1.991846        -0.353766
 H         5.082111         0.728151        -1.263197
 H         3.078580         0.694819        -2.821258
