19
Iteration:  4011
 C        -0.099117         0.196960         0.303774
 C         1.324032        -0.124565        -0.222213
 C         1.820601        -1.624350        -0.747412
 C         3.112600        -1.046877        -1.011526
 C         3.608658        -0.124354         0.232194
 C         4.035475         1.005716        -0.709265
 C         2.888641         0.395226        -1.683086
 O         1.569789         0.790211        -1.349026
 O         2.243554         0.089998         0.761542
 H        -0.506202        -0.680561         0.856715
 H        -0.166208         1.176849         0.779468
 H        -0.902964         0.439653        -0.444726
 H         1.731250        -2.279452         0.119856
 H         1.105269        -1.910876        -1.594778
 H         3.769238        -1.670776        -1.530604
 H         4.226122        -0.425006         1.080394
 H         3.880282         2.043906        -0.364386
 H         5.103763         0.852686        -1.145755
 H         3.062061         0.496873        -2.772729
