19
Iteration:  3276charge 0 multiplicity 1
 C        -0.085447         0.100731         0.286681
 C         1.352880        -0.066327        -0.216417
 C         1.645693        -1.533706        -0.692713
 C         3.083942        -1.063579        -1.030389
 C         3.522546        -0.153647         0.226350
 C         3.965715         1.016451        -0.744054
 C         3.025269         0.345289        -1.749675
 O         1.668655         0.776191        -1.332545
 O         2.265540         0.174899         0.818800
 H        -0.041146        -0.577107         1.151558
 H        -0.165766         1.175894         0.557219
 H        -0.729035        -0.246505        -0.590346
 H         1.770982        -2.246471         0.124398
 H         1.255912        -1.941653        -1.625847
 H         3.870997        -1.781791        -1.375254
 H         4.138075        -0.683825         0.973119
 H         3.645715         2.007106        -0.494805
 H         4.981125         0.977260        -1.095989
 H         2.805786         0.623038        -2.825819
