19
Iteration:  1667charge 0 multiplicity 1
 C        -0.063452         0.210255         0.465283
 C         1.224245        -0.128309        -0.244012
 C         1.709040        -1.576029        -0.797228
 C         3.115657        -1.006957        -1.132998
 C         3.470735        -0.141647         0.167570
 C         3.967546         1.031283        -0.741860
 C         3.061334         0.420470        -1.815346
 O         1.659414         0.729859        -1.281250
 O         2.276586         0.050337         0.891376
 H        -0.132013        -0.504695         1.255911
 H         0.147116         1.232946         0.844235
 H        -0.810076         0.200454        -0.453278
 H         1.611429        -2.292935         0.053467
 H         1.178046        -1.843344        -1.711356
 H         3.925440        -1.668409        -1.352137
 H         4.196894        -0.729565         0.783016
 H         3.650751         2.016778        -0.537633
 H         4.991565         0.904225        -1.035959
 H         3.048612         0.750651        -2.888748
