19
Iteration:  4739charge 0 multiplicity 1
 C        -0.112758         0.131095         0.298646
 C         1.318911        -0.057622        -0.212760
 C         1.800848        -1.450793        -0.716257
 C         3.163770        -1.076352        -0.994969
 C         3.545099        -0.173676         0.165996
 C         3.940757         1.006703        -0.740360
 C         3.025248         0.291404        -1.781849
 O         1.620034         0.733682        -1.317436
 O         2.212646         0.166063         0.810815
 H        -0.214954        -0.173271         1.333051
 H        -0.424406         1.168689         0.213374
 H        -0.912368        -0.350094        -0.223223
 H         1.700838        -2.082940         0.195161
 H         1.096232        -1.748678        -1.597136
 H         3.903261        -1.716728        -1.498323
 H         4.181376        -0.579463         0.972643
 H         3.592653         1.858321        -0.144840
 H         5.002708         0.999514        -0.955452
 H         3.177748         0.441199        -2.879225
