19
Iteration:  4778charge 0 multiplicity 1
 C        -0.054253         0.172683         0.178854
 C         1.333190        -0.128806        -0.194869
 C         1.729891        -1.512003        -0.695599
 C         3.197128        -1.026839        -0.968756
 C         3.587432        -0.118277         0.195481
 C         4.012365         0.967484        -0.782060
 C         2.887721         0.353735        -1.704965
 O         1.562071         0.736188        -1.276499
 O         2.199202         0.140589         0.832853
 H        -0.327888        -0.402863         1.086386
 H         0.044685         1.267473         0.397674
 H        -0.664004        -0.086091        -0.700617
 H         1.747378        -2.284887         0.024042
 H         1.349059        -1.901128        -1.573855
 H         3.818964        -1.721193        -1.512847
 H         4.279237        -0.421136         0.970089
 H         3.906874         2.030120        -0.562521
 H         5.077098         0.812518        -1.047925
 H         2.866933         0.444819        -2.778880
