19
Iteration:  1366
 C         0.021949         0.120716         0.364590
 C         1.318350        -0.154944        -0.219586
 C         1.659300        -1.512630        -0.778009
 C         3.085227        -0.999601        -1.161849
 C         3.491196        -0.245068         0.133264
 C         4.018533         1.068419        -0.755250
 C         2.979366         0.439527        -1.703291
 O         1.668780         0.796352        -1.274902
 O         2.220898         0.100878         0.866414
 H        -0.073359        -0.443692         1.435429
 H        -0.172413         1.190514         0.804366
 H        -0.875759        -0.276647        -0.137601
 H         1.785795        -2.343594        -0.072048
 H         0.964586        -1.865311        -1.537173
 H         3.925333        -1.656224        -1.422622
 H         4.040308        -0.936029         0.812926
 H         3.942633         2.136290        -0.562248
 H         5.000707         0.885526        -1.005524
 H         2.946895         0.621550        -2.805885
