19
Iteration:  3742charge 0 multiplicity 1
 C        -0.110922         0.181984         0.259584
 C         1.266502        -0.216445        -0.104574
 C         1.692587        -1.537656        -0.752110
 C         3.204308        -1.009101        -1.104456
 C         3.558550        -0.159821         0.242694
 C         4.070745         1.038788        -0.701962
 C         2.934278         0.454297        -1.787756
 O         1.596271         0.696940        -1.379428
 O         2.258286         0.134445         0.862866
 H        -0.499363        -0.105788         1.260432
 H        -0.127458         1.242305         0.467661
 H        -0.843450        -0.326827        -0.391433
 H         1.444975        -2.396106         0.034211
 H         1.255898        -1.660934        -1.813454
 H         3.997552        -1.766592        -1.100222
 H         4.382772        -0.507713         0.967852
 H         3.896701         1.997489        -0.242604
 H         5.070138         0.817648        -1.104254
 H         2.962436         0.639539        -2.897272
