19
Iteration:  2757
 C        -0.093896         0.128704         0.235364
 C         1.244480        -0.101547        -0.232517
 C         1.729961        -1.423226        -0.664550
 C         3.166751        -1.040379        -1.074546
 C         3.553411        -0.200178         0.160433
 C         3.989634         0.905622        -0.754399
 C         2.945081         0.476503        -1.732105
 O         1.610650         0.731989        -1.272083
 O         2.302856         0.148985         0.838482
 H        -0.283684        -0.507789         1.109318
 H        -0.202952         1.176248         0.640256
 H        -0.873745        -0.080320        -0.496204
 H         1.813215        -2.077913         0.184332
 H         1.210581        -2.071720        -1.307078
 H         3.888305        -1.883590        -1.357759
 H         4.158354        -0.734431         0.896896
 H         3.934412         1.971433        -0.499261
 H         5.023987         0.724919        -1.132860
 H         2.896787         0.707047        -2.818262
