19
Iteration:  4337charge 0 multiplicity 1
 C        -0.100501         0.171156         0.224501
 C         1.299681        -0.160572        -0.148867
 C         1.693551        -1.589967        -0.731307
 C         3.155252        -1.018494        -1.023524
 C         3.489637        -0.136436         0.197966
 C         4.014324         0.957765        -0.745730
 C         2.940749         0.474158        -1.757608
 O         1.645092         0.736050        -1.356096
 O         2.282091         0.152221         0.897141
 H        -0.164465        -0.156395         1.282625
 H        -0.144665         1.280742         0.134504
 H        -0.826131        -0.291602        -0.447395
 H         1.750712        -2.408825         0.088864
 H         0.978043        -1.688309        -1.531361
 H         3.934623        -1.634193        -1.474253
 H         4.200681        -0.538908         0.953068
 H         4.004385         1.961789        -0.294452
 H         4.994808         0.680647        -1.142468
 H         3.129318         0.473777        -2.873773
