19
Iteration:  1406
 C         0.005502         0.199706         0.259493
 C         1.334243        -0.095813        -0.172558
 C         1.716096        -1.528619        -0.813611
 C         3.152803        -1.064524        -1.054845
 C         3.589511        -0.273144         0.183592
 C         3.921937         1.069455        -0.747854
 C         2.853050         0.430587        -1.651682
 O         1.543562         0.786034        -1.211225
 O         2.363259         0.043842         0.810654
 H        -0.195624        -0.259154         1.200563
 H        -0.091089         1.256392         0.421473
 H        -0.713440        -0.077411        -0.523540
 H         1.308115        -2.273398        -0.094466
 H         1.242995        -1.704534        -1.853838
 H         3.766454        -1.667023        -1.693722
 H         4.319767        -0.712398         0.907857
 H         3.674703         2.049117        -0.295991
 H         4.937464         0.885772        -1.362222
 H         2.972566         0.631188        -2.783847
