19
Iteration:  4970charge 0 multiplicity 1
 C        -0.176356         0.161109         0.261667
 C         1.301769        -0.120118        -0.201193
 C         1.686625        -1.556785        -0.740092
 C         3.154703        -1.092471        -0.999140
 C         3.612339        -0.092021         0.212802
 C         3.986542         0.993533        -0.752704
 C         2.980938         0.330996        -1.734885
 O         1.688655         0.736829        -1.344214
 O         2.284466         0.219981         0.853436
 H        -0.282896        -0.452599         1.140975
 H        -0.377390         1.195989         0.361776
 H        -0.849947        -0.401956        -0.398423
 H         1.411780        -2.348119         0.055121
 H         0.984244        -1.705794        -1.712417
 H         3.837812        -1.779977        -1.420303
 H         4.106991        -0.554069         1.031230
 H         3.512818         1.917321        -0.445020
 H         5.071016         1.161726        -0.963541
 H         3.071800         0.432480        -2.818606
