19
Iteration:  3691charge 0 multiplicity 1
 C        -0.092420         0.082481         0.307050
 C         1.290973        -0.106353        -0.252965
 C         1.753460        -1.441600        -0.700768
 C         3.118901        -1.085428        -1.015402
 C         3.529914        -0.192483         0.162984
 C         4.008451         0.997792        -0.761183
 C         3.032967         0.476520        -1.721355
 O         1.615119         0.726175        -1.326954
 O         2.216718         0.156289         0.810459
 H        -0.181399        -0.403480         1.304415
 H        -0.344883         1.114929         0.559832
 H        -0.797245        -0.416160        -0.281752
 H         1.571382        -2.160617         0.087672
 H         1.175578        -1.827493        -1.512094
 H         3.847729        -1.858301        -1.384294
 H         4.278886        -0.531590         0.878588
 H         3.767993         1.997060        -0.275398
 H         5.135717         0.939668        -0.951157
 H         3.134939         0.519841        -2.852022
