19
Iteration:  3415
 C        -0.148935         0.128117         0.229484
 C         1.227831        -0.151285        -0.257866
 C         1.747392        -1.557234        -0.679041
 C         3.173486        -0.991537        -1.015589
 C         3.569396        -0.111215         0.228153
 C         3.993720         0.968915        -0.796232
 C         2.972505         0.397524        -1.735324
 O         1.614657         0.793798        -1.303384
 O         2.293624         0.112625         0.849566
 H        -0.523135        -0.620116         0.914777
 H        -0.172895         1.018620         0.921986
 H        -0.953543         0.422438        -0.500433
 H         1.916056        -2.124930         0.248400
 H         1.165047        -2.048108        -1.454084
 H         3.800033        -1.761648        -1.509818
 H         4.244378        -0.495845         1.029821
 H         4.055829         2.003780        -0.376130
 H         4.996844         0.630731        -1.252910
 H         3.119900         0.536371        -2.909169
