19
Iteration:   315
 C        -0.109711         0.090763         0.435888
 C         1.241601        -0.093920        -0.206782
 C         1.731916        -1.511238        -0.743984
 C         3.128176        -1.018522        -1.108732
 C         3.631815        -0.184663         0.111271
 C         4.056693         0.981843        -0.804178
 C         2.848259         0.425392        -1.732114
 O         1.622068         0.926273        -1.218871
 O         2.295068         0.004836         0.793212
 H        -0.369705        -0.856020         1.049170
 H        -0.071763         1.021066         1.041764
 H        -0.853307         0.309590        -0.352706
 H         1.878315        -2.156636         0.139453
 H         1.072626        -2.000676        -1.516467
 H         3.778177        -1.701570        -1.707589
 H         4.178222        -0.563466         0.936125
 H         4.221240         1.916226        -0.358436
 H         4.879324         0.611563        -1.418474
 H         2.874008         0.513454        -2.882656
