19
Iteration:  4506
 C        -0.098301         0.160601         0.309518
 C         1.346021        -0.180596        -0.232266
 C         1.717618        -1.596692        -0.690813
 C         3.107775        -1.028547        -1.031147
 C         3.480700        -0.120062         0.221578
 C         4.075973         0.989961        -0.694963
 C         3.031337         0.423812        -1.782124
 O         1.587853         0.754930        -1.377257
 O         2.218146         0.169683         0.820908
 H        -0.071801        -0.251605         1.297730
 H        -0.279220         1.188905         0.316701
 H        -0.862717        -0.250554        -0.326336
 H         1.769767        -2.235438         0.291977
 H         1.010632        -1.830626        -1.655057
 H         3.975752        -1.763784        -1.230783
 H         4.128761        -0.728079         0.850744
 H         3.855880         2.030007        -0.508479
 H         5.106989         0.823929        -0.959252
 H         3.139859         0.704581        -2.841049
