19
Iteration:  3405
 C        -0.178583         0.215048         0.277039
 C         1.290453        -0.167622        -0.284331
 C         1.857459        -1.601495        -0.686261
 C         3.119366        -1.040388        -1.018253
 C         3.568563        -0.157297         0.202662
 C         3.994169         0.961816        -0.739667
 C         2.931497         0.420535        -1.757976
 O         1.642391         0.784524        -1.326148
 O         2.246949         0.170095         0.888382
 H        -0.426761        -0.685747         0.866859
 H        -0.178232         1.086620         0.962041
 H        -1.018784         0.177584        -0.510396
 H         1.662723        -2.279139         0.117351
 H         1.298044        -1.932194        -1.503642
 H         3.943993        -1.530968        -1.470186
 H         4.319888        -0.700319         0.780710
 H         3.883638         2.040068        -0.581749
 H         5.045541         0.742325        -1.103706
 H         2.852768         0.505849        -2.933509
