19
Iteration:  2377
 C        -0.106821         0.108353         0.300105
 C         1.345357        -0.072207        -0.204638
 C         1.742243        -1.462369        -0.630071
 C         3.116081        -1.030464        -1.132494
 C         3.516104        -0.226000         0.143299
 C         3.967432         0.933225        -0.684096
 C         2.997112         0.402340        -1.752621
 O         1.602068         0.713906        -1.305817
 O         2.300118         0.246657         0.802299
 H        -0.309199        -0.862218         0.970076
 H        -0.294999         1.159783         0.831665
 H        -0.841049        -0.040593        -0.604422
 H         1.863113        -2.343788         0.049544
 H         1.008974        -1.804145        -1.468746
 H         3.893860        -1.690601        -1.486450
 H         4.015913        -0.839807         0.950088
 H         3.980398         1.950132        -0.226604
 H         4.967496         0.838401        -1.085332
 H         2.958932         0.697075        -2.813725
