19
Iteration:  4603charge 0 multiplicity 1
 C        -0.024343         0.162502         0.311123
 C         1.234041        -0.173084        -0.249816
 C         1.728675        -1.557966        -0.726932
 C         3.157507        -0.984215        -0.997439
 C         3.587728        -0.083304         0.263151
 C         4.004104         0.939529        -0.714890
 C         2.918025         0.337122        -1.623003
 O         1.578788         0.754420        -1.417203
 O         2.239278         0.191022         0.763758
 H        -0.223475        -0.657723         0.991365
 H        -0.029234         1.096678         0.782628
 H        -0.606757         0.227711        -0.630760
 H         1.831130        -2.493474        -0.033346
 H         1.303931        -1.860554        -1.741525
 H         3.932042        -1.649771        -1.495243
 H         4.041065        -0.496093         1.159340
 H         3.949636         1.965197        -0.335775
 H         4.948286         0.731151        -1.235962
 H         3.095690         0.587614        -2.618623
