19
Iteration:  2512charge 0 multiplicity 1
 C        -0.091439         0.144355         0.244166
 C         1.323720        -0.174211        -0.183141
 C         1.654325        -1.492463        -0.836274
 C         3.110119        -1.049752        -0.990141
 C         3.548979        -0.126638         0.204706
 C         4.032346         0.979811        -0.803616
 C         2.939017         0.378939        -1.774691
 O         1.617206         0.725028        -1.274323
 O         2.318961         0.198993         0.950418
 H        -0.166001        -0.207384         1.318077
 H        -0.403087         1.216105         0.429633
 H        -0.897672        -0.318332        -0.350206
 H         1.467359        -2.350615        -0.049023
 H         1.189401        -1.666002        -1.878466
 H         3.867613        -1.856226        -1.336296
 H         4.376958        -0.548567         0.815247
 H         3.845873         1.977081        -0.453219
 H         5.058869         0.799748        -1.185676
 H         3.084925         0.513092        -2.918304
