19
Iteration:   570charge 0 multiplicity 1
 C        -0.055575         0.054599         0.423811
 C         1.334938        -0.079474        -0.093573
 C         1.608939        -1.490283        -0.906550
 C         3.063272        -1.032574        -1.104977
 C         3.606461        -0.199526         0.133567
 C         4.004266         0.959724        -0.785531
 C         2.910613         0.403271        -1.718652
 O         1.642300         0.862766        -1.235814
 O         2.334008         0.105376         0.857259
 H         0.010326        -0.651394         1.191236
 H        -0.306347         1.068007         0.768803
 H        -0.809802        -0.207052        -0.405435
 H         1.458272        -2.373163        -0.289819
 H         0.960410        -1.423348        -1.750992
 H         3.877584        -1.610211        -1.543564
 H         4.400560        -0.710995         0.747048
 H         3.820562         1.985654        -0.444392
 H         4.925141         0.686129        -1.187790
 H         2.976503         0.622878        -2.863577
