19
Iteration:  3849charge 0 multiplicity 1
 C        -0.141768         0.123133         0.298441
 C         1.312887        -0.105241        -0.196260
 C         1.726251        -1.495781        -0.725665
 C         3.183758        -0.998729        -1.047884
 C         3.526208        -0.175235         0.238536
 C         4.038253         1.008784        -0.754941
 C         2.924649         0.367655        -1.681505
 O         1.634525         0.761625        -1.335442
 O         2.240816         0.090419         0.774280
 H        -0.283462        -0.711100         1.078578
 H        -0.107264         1.158419         0.733249
 H        -0.910466         0.143240        -0.589354
 H         1.808543        -2.226632         0.092424
 H         1.059332        -2.051858        -1.398232
 H         3.926203        -1.497893        -1.641072
 H         4.264837        -0.387097         1.041285
 H         3.891563         2.042769        -0.449391
 H         5.065922         0.952692        -1.176169
 H         3.040965         0.509766        -2.747410
