19
Iteration:  1749charge 0 multiplicity 1
 C        -0.104746         0.142686         0.265137
 C         1.304119        -0.085055        -0.172471
 C         1.763228        -1.465981        -0.750209
 C         3.158929        -1.038959        -1.022246
 C         3.579334        -0.203495         0.189822
 C         3.925412         0.877163        -0.825707
 C         2.920422         0.451014        -1.777845
 O         1.594903         0.837258        -1.239989
 O         2.327574         0.049882         0.874831
 H        -0.236583        -0.396413         1.311045
 H        -0.225234         1.235118         0.527595
 H        -0.918680        -0.118127        -0.326663
 H         1.532792        -2.424777        -0.111646
 H         1.240958        -1.733990        -1.786702
 H         3.987680        -1.705095        -1.396608
 H         4.276086        -0.468275         0.978919
 H         3.845271         2.028185        -0.589029
 H         4.996097         0.806051        -1.259968
 H         2.790100         0.715126        -2.842202
