19
Iteration:  3888
 C        -0.096980         0.159145         0.285841
 C         1.339691        -0.042424        -0.135776
 C         1.753500        -1.551979        -0.787504
 C         3.136203        -1.026870        -1.077751
 C         3.658992        -0.197366         0.237229
 C         3.890605         0.996356        -0.721433
 C         2.938969         0.327325        -1.676568
 O         1.599590         0.777085        -1.361908
 O         2.279338         0.107137         0.831542
 H        -0.360428        -0.339661         1.155028
 H        -0.325138         1.225070         0.281162
 H        -0.802999        -0.066000        -0.505697
 H         1.595725        -2.241255         0.047157
 H         1.298399        -1.604237        -1.796597
 H         4.063937        -1.524101        -1.513023
 H         4.174803        -0.593933         1.120445
 H         3.482876         1.987768        -0.385797
 H         4.954490         0.976852        -1.066701
 H         3.012941         0.320753        -2.801245
