19
Iteration:  1914charge 0 multiplicity 1
 C        -0.040982         0.207072         0.383269
 C         1.348946        -0.153614        -0.211878
 C         1.715870        -1.445936        -0.786875
 C         3.180163        -1.040224        -1.053610
 C         3.574882        -0.272359         0.186285
 C         3.956019         0.977474        -0.635834
 C         2.880499         0.388648        -1.700367
 O         1.506413         0.696012        -1.400022
 O         2.312489         0.181950         0.818692
 H        -0.185360        -0.246541         1.376841
 H        -0.034482         1.328845         0.421846
 H        -0.805025        -0.087388        -0.297661
 H         1.793615        -2.424422        -0.221756
 H         1.247858        -1.371753        -1.833070
 H         3.924068        -1.645499        -1.483793
 H         4.261992        -0.770644         0.876573
 H         3.928048         2.010788        -0.215853
 H         4.945800         0.949653        -1.189208
 H         3.037447         0.534850        -2.768860
