19
Iteration:  4076charge 0 multiplicity 1
 C        -0.070998         0.142525         0.265214
 C         1.254755        -0.126504        -0.272259
 C         1.740674        -1.534879        -0.708546
 C         3.114724        -1.054396        -0.984475
 C         3.536141        -0.104088         0.206338
 C         4.014038         1.008984        -0.769715
 C         2.937443         0.371691        -1.748331
 O         1.649660         0.747405        -1.269097
 O         2.253353         0.113622         0.816153
 H        -0.228762        -0.444925         1.188808
 H        -0.071023         1.203821         0.600730
 H        -0.877813        -0.038899        -0.414404
 H         1.791375        -2.296935         0.080114
 H         1.243325        -1.659912        -1.764308
 H         3.813717        -1.735027        -1.321893
 H         4.223924        -0.631633         0.878747
 H         3.847880         2.018133        -0.388264
 H         5.065089         0.834786        -1.177284
 H         3.027118         0.793571        -2.758140
