19
Iteration:  3607
 C        -0.075542         0.137783         0.296839
 C         1.394117        -0.121289        -0.213212
 C         1.755755        -1.461731        -0.706856
 C         3.165404        -1.011422        -0.995543
 C         3.559050        -0.207173         0.262104
 C         3.882987         0.987408        -0.727975
 C         2.953813         0.386514        -1.749853
 O         1.608362         0.729159        -1.429197
 O         2.259663         0.142817         0.828476
 H        -0.445983        -0.718899         0.944165
 H        -0.166192         1.080503         0.928651
 H        -0.827543         0.274311        -0.507680
 H         1.607476        -2.203216         0.073014
 H         1.132713        -1.537143        -1.604342
 H         3.966280        -1.723030        -1.353370
 H         4.282057        -0.697571         0.921244
 H         3.688731         1.982118        -0.333981
 H         4.868228         0.864478        -1.102941
 H         2.987865         0.467105        -2.807363
