19
Iteration:  2413charge 0 multiplicity 1
 C        -0.043761         0.187255         0.273702
 C         1.283921        -0.102833        -0.220990
 C         1.682029        -1.489066        -0.704037
 C         3.200626        -1.044549        -1.001258
 C         3.565873        -0.135457         0.222818
 C         3.970892         1.021997        -0.806150
 C         2.906267         0.338788        -1.694986
 O         1.600764         0.755759        -1.275807
 O         2.278390         0.053135         0.786731
 H        -0.408301        -0.583050         0.962085
 H        -0.100324         1.126432         0.837623
 H        -0.649610         0.270564        -0.574557
 H         1.531416        -2.374584        -0.004144
 H         1.290123        -1.615964        -1.735296
 H         3.937232        -1.790738        -1.348380
 H         4.356486        -0.283926         0.948553
 H         3.800141         2.055561        -0.512934
 H         4.948804         0.765722        -1.228193
 H         3.042009         0.432983        -2.810802
