19
Iteration:  3977
 C        -0.073446         0.111055         0.219467
 C         1.359092        -0.093325        -0.156748
 C         1.747001        -1.452447        -0.746880
 C         3.061159        -1.020677        -1.116006
 C         3.559728        -0.128945         0.257249
 C         3.992371         0.991667        -0.718116
 C         2.950718         0.366397        -1.729687
 O         1.611255         0.729484        -1.316394
 O         2.267643         0.102696         0.850059
 H        -0.395141        -0.483722         1.068334
 H        -0.146454         1.061226         0.721724
 H        -0.764193        -0.060346        -0.642056
 H         1.808048        -2.229368         0.085256
 H         1.004177        -1.665253        -1.597275
 H         3.792125        -1.732268        -1.505954
 H         4.274965        -0.481844         1.019020
 H         3.696634         2.024854        -0.445804
 H         5.106095         0.932055        -0.972135
 H         3.009073         0.296723        -2.845305
