19
Iteration:  3752
 C        -0.104049         0.203348         0.285218
 C         1.308005        -0.265442        -0.107881
 C         1.741383        -1.591585        -0.740591
 C         3.129199        -1.027612        -1.041017
 C         3.534060        -0.101344         0.197886
 C         4.002373         0.996454        -0.737583
 C         2.943226         0.482681        -1.700407
 O         1.607111         0.760347        -1.397319
 O         2.279419         0.114878         0.840889
 H        -0.363998        -0.365979         1.193108
 H        -0.123987         1.291469         0.183479
 H        -0.754149         0.026066        -0.641300
 H         1.612105        -2.541551        -0.062373
 H         0.983531        -1.701413        -1.604276
 H         3.996292        -1.565893        -1.473285
 H         4.214086        -0.495696         1.034360
 H         3.956893         2.001812        -0.365953
 H         5.048355         0.817941        -0.937565
 H         3.200603         0.432287        -2.754161
