19
Iteration:   861
 C        -0.073579         0.214565         0.391384
 C         1.282048        -0.096963        -0.205528
 C         1.803465        -1.494526        -0.839939
 C         3.148640        -1.036423        -1.082359
 C         3.580261        -0.250649         0.142583
 C         3.963218         0.972935        -0.809945
 C         2.895522         0.433187        -1.753879
 O         1.517537         0.832538        -1.174666
 O         2.366525        -0.000266         0.844783
 H        -0.249000        -0.576997         1.038916
 H        -0.037436         1.160837         0.935226
 H        -0.902159         0.112349        -0.422630
 H         1.657716        -2.257086        -0.034500
 H         1.082319        -1.713452        -1.642259
 H         3.897270        -1.642817        -1.598152
 H         4.299324        -0.480493         0.916905
 H         3.817897         1.926802        -0.325715
 H         4.948726         0.839434        -1.257064
 H         2.753525         0.668591        -2.901345
