19
Iteration:  3050charge 0 multiplicity 1
 C        -0.118222         0.120910         0.331494
 C         1.302525        -0.116237        -0.209082
 C         1.727515        -1.470077        -0.645299
 C         3.147152        -1.026334        -1.053323
 C         3.493537        -0.231003         0.171194
 C         3.949520         0.963309        -0.764310
 C         2.998672         0.399601        -1.787164
 O         1.653421         0.794218        -1.348643
 O         2.252952         0.155084         0.844645
 H        -0.298254        -0.728634         0.968238
 H         0.004151         1.118056         0.797521
 H        -0.786695         0.141494        -0.542952
 H         1.829122        -2.296495         0.111747
 H         1.182813        -1.790747        -1.582808
 H         4.094599        -1.681104        -1.316773
 H         4.122517        -0.549731         1.072979
 H         3.794136         1.984039        -0.377417
 H         5.021379         0.824157        -1.093530
 H         3.128463         0.373385        -2.961260
