19
Iteration:  2861charge 0 multiplicity 1
 C        -0.048222         0.164559         0.235749
 C         1.320679        -0.091223        -0.123142
 C         1.692577        -1.596213        -0.796957
 C         3.036123        -1.052947        -1.074942
 C         3.593314        -0.148413         0.259912
 C         3.927072         1.000516        -0.714392
 C         2.998000         0.359874        -1.758928
 O         1.592107         0.750398        -1.338081
 O         2.362655         0.175309         0.854270
 H        -0.341324        -0.420535         1.109893
 H        -0.276575         1.160406         0.490361
 H        -0.791904        -0.033014        -0.528756
 H         1.908629        -2.241342         0.072288
 H         0.861206        -1.895900        -1.499914
 H         3.755049        -1.624322        -1.473232
 H         4.269695        -0.566640         1.000638
 H         3.709971         2.028988        -0.366028
 H         4.958060         0.897838        -1.045288
 H         3.046793         0.511349        -2.811490
