19
Iteration:  4173charge 0 multiplicity 1
 C        -0.081004         0.181845         0.318345
 C         1.275431        -0.130517        -0.217533
 C         1.693233        -1.558609        -0.791931
 C         3.167053        -1.039989        -1.059597
 C         3.578770        -0.076219         0.293826
 C         4.011270         0.971664        -0.730134
 C         2.915603         0.384941        -1.671314
 O         1.576081         0.717590        -1.419209
 O         2.311120         0.124900         0.864715
 H        -0.334737        -0.466292         1.145003
 H        -0.203400         1.204665         0.543411
 H        -0.803812         0.049994        -0.431894
 H         1.681553        -2.349379        -0.052191
 H         1.301876        -1.593864        -1.767782
 H         3.895775        -1.775254        -1.276541
 H         4.234300        -0.451176         1.116876
 H         3.938763         2.007654        -0.511414
 H         4.888115         0.754326        -1.298715
 H         3.087250         0.601645        -2.759053
