19
Iteration:  3300charge 0 multiplicity 1
 C        -0.195183         0.106882         0.257898
 C         1.325220        -0.099647        -0.176267
 C         1.752687        -1.399235        -0.705910
 C         3.165670        -1.058130        -0.997857
 C         3.573551        -0.169846         0.227976
 C         3.975066         0.937974        -0.748226
 C         2.965676         0.330456        -1.735499
 O         1.566106         0.774497        -1.352282
 O         2.338455         0.160072         0.846036
 H        -0.309928        -0.314179         1.259000
 H        -0.291239         1.155600         0.171271
 H        -0.763224        -0.416394        -0.558706
 H         1.683638        -2.236463         0.037214
 H         1.255353        -1.599695        -1.719891
 H         3.763903        -1.575709        -1.650312
 H         4.227703        -0.624234         0.966449
 H         3.822862         1.924455        -0.330623
 H         4.962399         0.846361        -1.199906
 H         3.030860         0.369816        -2.799743
