19
Iteration:   244charge 0 multiplicity 1
 C        -0.062006         0.223080         0.484800
 C         1.313806        -0.077494        -0.238953
 C         1.707592        -1.545261        -0.742928
 C         3.056388        -0.987753        -1.200069
 C         3.569455        -0.275579         0.097317
 C         3.989384         1.061119        -0.711245
 C         2.939041         0.554686        -1.704836
 O         1.582113         0.779540        -1.380722
 O         2.320459        -0.086951         0.879530
 H         0.073671        -0.371966         1.384132
 H        -0.271765         1.280154         0.701615
 H        -0.944062        -0.132307        -0.104211
 H         1.917636        -2.225988         0.143450
 H         1.043352        -2.012742        -1.486176
 H         3.806294        -1.691076        -1.601596
 H         4.390005        -0.666674         0.792029
 H         4.073951         2.051092        -0.063722
 H         4.923910         0.813747        -1.291292
 H         2.985153         0.699768        -2.734933
