19
Iteration:  4266charge 0 multiplicity 1
 C        -0.107369         0.168623         0.354244
 C         1.282705        -0.137312        -0.249450
 C         1.798355        -1.574224        -0.797674
 C         3.172250        -1.039836        -1.147476
 C         3.540325        -0.106586         0.293009
 C         3.968272         0.903340        -0.667783
 C         2.940968         0.302895        -1.736216
 O         1.595780         0.769325        -1.364676
 O         2.252921         0.232877         0.845646
 H        -0.285431        -0.580711         1.129652
 H        -0.102583         1.206953         0.766730
 H        -0.892139         0.072325        -0.464642
 H         1.696431        -2.174750        -0.060087
 H         1.235067        -1.619424        -1.741188
 H         4.070039        -1.610290        -1.302354
 H         4.250576        -0.381948         1.063924
 H         3.844627         1.983812        -0.346846
 H         5.017337         0.639840        -0.998521
 H         3.044026         0.487817        -2.793597
