19
Iteration:  3876charge 0 multiplicity 1
 C        -0.097621         0.154375         0.247458
 C         1.349409        -0.094875        -0.139473
 C         1.717663        -1.511718        -0.795470
 C         3.151036        -1.066588        -1.002021
 C         3.511917        -0.204938         0.230292
 C         3.889836         1.004843        -0.724902
 C         2.919881         0.380407        -1.756223
 O         1.636185         0.783922        -1.392688
 O         2.351501         0.132399         0.911037
 H        -0.328478        -0.451043         1.084348
 H        -0.237036         1.176748         0.546816
 H        -0.614400        -0.201105        -0.558936
 H         1.726772        -2.458431        -0.181701
 H         1.038366        -1.871205        -1.572564
 H         3.889797        -1.782597        -1.479393
 H         4.357269        -0.452445         0.896309
 H         3.610931         1.989165        -0.290161
 H         4.908019         1.124521        -1.078954
 H         3.148296         0.590086        -2.837205
