19
Iteration:   749charge 0 multiplicity 1
 C        -0.011138         0.137092         0.404030
 C         1.328652        -0.120192        -0.186918
 C         1.723073        -1.512249        -0.848698
 C         3.110391        -1.072013        -1.066888
 C         3.648226        -0.266896         0.130121
 C         3.913210         1.003112        -0.750877
 C         2.847924         0.390259        -1.742506
 O         1.550630         0.955353        -1.272982
 O         2.351559        -0.000609         0.884820
 H        -0.384710        -0.444110         1.339017
 H        -0.043378         1.240858         0.638293
 H        -0.730316         0.057155        -0.390670
 H         1.520705        -2.287191        -0.078257
 H         1.202582        -1.719323        -1.807921
 H         3.738055        -1.833448        -1.560412
 H         4.497289        -0.601672         0.741575
 H         3.647236         1.945198        -0.343409
 H         4.946925         1.189840        -1.169918
 H         3.053597         0.726586        -2.877139
