19
Iteration:  2570
 C        -0.039286         0.216203         0.307322
 C         1.337697        -0.174787        -0.187503
 C         1.687653        -1.520822        -0.737078
 C         3.105283        -1.009644        -1.126665
 C         3.572129        -0.155221         0.280221
 C         3.974602         1.007576        -0.682428
 C         2.944920         0.368134        -1.664440
 O         1.546127         0.647850        -1.388398
 O         2.333635         0.211029         0.793073
 H        -0.374530        -0.589182         0.971478
 H         0.066081         1.163443         0.823609
 H        -0.750582         0.212432        -0.563544
 H         1.633601        -2.503453         0.030991
 H         0.925607        -1.790373        -1.559556
 H         3.714791        -1.649708        -1.707283
 H         4.275997        -0.609526         1.061170
 H         3.826950         2.082619        -0.357401
 H         4.979430         0.956291        -1.163747
 H         3.236616         0.469604        -2.749085
