19
Iteration:   746
 C        -0.002014         0.161066         0.394341
 C         1.354293        -0.110078        -0.217904
 C         1.716606        -1.512189        -0.851010
 C         3.114385        -1.071359        -1.040114
 C         3.630808        -0.264752         0.134603
 C         3.919249         0.988306        -0.756402
 C         2.840082         0.397480        -1.734821
 O         1.516217         0.934899        -1.256169
 O         2.375926         0.006865         0.875024
 H        -0.441286        -0.464868         1.247628
 H        -0.030651         1.192831         0.746500
 H        -0.708462        -0.077620        -0.419513
 H         1.465524        -2.318963        -0.183833
 H         1.170681        -1.680263        -1.798284
 H         3.768807        -1.777507        -1.553003
 H         4.486196        -0.647236         0.760344
 H         3.685250         2.037588        -0.198083
 H         4.950864         1.191775        -1.263329
 H         3.104771         0.674352        -2.844605
