19
Iteration:  4436charge 0 multiplicity 1
 C        -0.092619         0.171157         0.189019
 C         1.301492        -0.092714        -0.190096
 C         1.795718        -1.594448        -0.667320
 C         3.149762        -1.049705        -1.100966
 C         3.522052        -0.152179         0.287453
 C         3.976871         0.940152        -0.786702
 C         2.944458         0.347938        -1.736916
 O         1.571276         0.819136        -1.298844
 O         2.247403         0.129972         0.819600
 H        -0.448871        -0.607699         0.867666
 H         0.085855         1.107842         0.812410
 H        -0.698130         0.535266        -0.638675
 H         1.945683        -2.291213         0.231200
 H         1.172509        -2.006188        -1.395739
 H         4.020494        -1.535015        -1.391334
 H         4.197950        -0.273399         1.152514
 H         3.950432         2.051916        -0.618163
 H         5.045176         0.711126        -0.943498
 H         3.056865         0.538612        -2.809238
