19
Iteration:  1001charge 0 multiplicity 1
 C        -0.031106         0.163386         0.433447
 C         1.295850        -0.191180        -0.220618
 C         1.684006        -1.507168        -0.833720
 C         3.088431        -1.057823        -1.176070
 C         3.556823        -0.251782         0.149091
 C         3.940196         1.037964        -0.698433
 C         2.949146         0.450198        -1.709345
 O         1.620428         0.786533        -1.248555
 O         2.337663         0.125999         0.787053
 H        -0.031331        -0.295815         1.487267
 H        -0.108790         1.267112         0.684780
 H        -1.060588        -0.182871         0.032612
 H         1.776573        -2.222217         0.034651
 H         1.093070        -1.939779        -1.625191
 H         3.871826        -1.733056        -1.534122
 H         4.147508        -0.784556         0.871166
 H         3.662661         2.043729        -0.362936
 H         5.014221         0.937811        -1.255383
 H         3.112927         0.846912        -2.750099
