19
Iteration:  4414charge 0 multiplicity 1
 C        -0.167630         0.173839         0.242692
 C         1.271153        -0.104964        -0.218843
 C         1.781144        -1.509639        -0.683868
 C         3.164121        -1.025829        -0.979450
 C         3.626319        -0.176663         0.203709
 C         3.967443         0.973499        -0.749775
 C         2.911397         0.394861        -1.736535
 O         1.628538         0.737677        -1.353155
 O         2.274031         0.125545         0.836362
 H        -0.516184        -0.633665         0.906172
 H        -0.213414         1.157897         0.817379
 H        -0.775708         0.391414        -0.635631
 H         1.497577        -2.179570         0.199182
 H         1.353084        -1.909903        -1.563818
 H         3.879787        -1.722921        -1.328233
 H         4.277198        -0.726493         0.897036
 H         3.950895         2.041124        -0.487899
 H         5.005833         0.895607        -1.101591
 H         3.059025         0.435226        -2.833888
