19
Iteration:  2519charge 0 multiplicity 1
 C        -0.107384         0.134036         0.263774
 C         1.322278        -0.131130        -0.228517
 C         1.664783        -1.519509        -0.803990
 C         3.098827        -1.064538        -0.985825
 C         3.584175        -0.111011         0.233904
 C         4.020675         0.976734        -0.830356
 C         2.943867         0.358959        -1.733142
 O         1.607699         0.770152        -1.294293
 O         2.316310         0.151671         0.939872
 H        -0.105575        -0.347659         1.232559
 H        -0.107129         1.241464         0.224366
 H        -0.904227        -0.266838        -0.334898
 H         1.423069        -2.296855        -0.217347
 H         1.105715        -1.813934        -1.647365
 H         3.785762        -1.707351        -1.480481
 H         4.355116        -0.455046         0.897968
 H         3.856697         2.022117        -0.545833
 H         5.056503         0.911410        -1.130933
 H         3.030316         0.503126        -2.775363
