19
Iteration:  3443
 C        -0.079722         0.087648         0.220905
 C         1.323192        -0.082566        -0.158507
 C         1.689956        -1.518334        -0.746664
 C         3.163933        -1.012064        -0.994160
 C         3.550703        -0.168831         0.211329
 C         3.931117         0.992978        -0.763800
 C         2.921591         0.344007        -1.769599
 O         1.628554         0.740913        -1.342036
 O         2.328677         0.220906         0.900680
 H        -0.270982        -0.814772         0.845620
 H        -0.262939         1.032164         0.806530
 H        -0.758253         0.221273        -0.599766
 H         1.628081        -2.439069        -0.107594
 H         1.121296        -1.604052        -1.750188
 H         3.735619        -1.872776        -1.481436
 H         4.177370        -0.646351         0.985243
 H         3.798828         1.930036        -0.206780
 H         4.941606         0.930550        -1.093207
 H         3.173485         0.426926        -2.792652
