19
Iteration:  2417charge 0 multiplicity 1
 C        -0.063960         0.209561         0.273918
 C         1.288020        -0.111298        -0.216261
 C         1.703430        -1.509034        -0.754091
 C         3.189290        -1.037861        -0.995767
 C         3.534064        -0.139715         0.193092
 C         3.963822         1.014025        -0.803264
 C         2.919853         0.341543        -1.687320
 O         1.598070         0.710022        -1.257071
 O         2.308684         0.100191         0.815458
 H        -0.270501        -0.479619         1.060042
 H        -0.062846         1.054132         0.908045
 H        -0.568783         0.284049        -0.728516
 H         1.383142        -2.368838        -0.193056
 H         1.294238        -1.565724        -1.743452
 H         3.985556        -1.728789        -1.312261
 H         4.304069        -0.316814         0.970480
 H         3.654232         2.034650        -0.551972
 H         4.979761         0.718743        -1.175934
 H         2.984319         0.456476        -2.752224
