19
Iteration:  1503
 C        -0.107905         0.172689         0.359916
 C         1.327744        -0.119503        -0.236397
 C         1.725672        -1.485846        -0.723848
 C         3.108203        -0.980808        -1.100146
 C         3.566434        -0.208790         0.165948
 C         3.997731         0.992082        -0.749684
 C         2.904172         0.463678        -1.787216
 O         1.588272         0.817736        -1.318424
 O         2.323698        -0.024817         0.914813
 H        -0.355668        -0.447971         1.187648
 H        -0.128540         1.152846         0.777718
 H        -0.846047         0.125862        -0.428904
 H         1.752795        -2.272028         0.043229
 H         1.134355        -1.910242        -1.580434
 H         3.814184        -1.567296        -1.663473
 H         4.415996        -0.598661         0.761605
 H         3.870476         1.985698        -0.340880
 H         4.995906         0.618953        -1.026687
 H         3.095488         0.485814        -2.877963
