19
Iteration:  1014charge 0 multiplicity 1
 C        -0.006132         0.168997         0.494247
 C         1.321477        -0.080111        -0.174026
 C         1.731082        -1.545173        -0.845415
 C         3.106479        -0.945484        -1.165556
 C         3.558101        -0.223018         0.182853
 C         3.958376         0.931976        -0.711463
 C         2.926334         0.424118        -1.744869
 O         1.552458         0.757727        -1.323289
 O         2.305494         0.091658         0.839706
 H        -0.042003        -0.282464         1.433946
 H        -0.129141         1.232932         0.602841
 H        -0.710951        -0.192270        -0.358926
 H         1.681660        -2.485003        -0.268370
 H         1.020842        -1.675608        -1.698464
 H         3.804888        -1.546712        -1.783716
 H         4.285435        -0.555702         0.900402
 H         3.738538         1.965024        -0.184198
 H         5.168095         0.953289        -0.903628
 H         2.911223         0.480987        -2.895990
