19
Iteration:  2479
 C        -0.064948         0.128242         0.291079
 C         1.255988        -0.123647        -0.288730
 C         1.701131        -1.538237        -0.699494
 C         3.098102        -1.054013        -1.055225
 C         3.634606        -0.194707         0.230161
 C         4.012939         0.946053        -0.712247
 C         2.942235         0.405261        -1.701715
 O         1.570199         0.835667        -1.379583
 O         2.309551         0.158542         0.842910
 H        -0.084171        -0.362811         1.319569
 H        -0.257489         1.237742         0.391092
 H        -0.899250        -0.326484        -0.231071
 H         1.707757        -2.068017         0.345154
 H         1.137853        -1.975670        -1.601058
 H         3.805879        -1.776235        -1.592581
 H         4.229735        -0.535374         1.088137
 H         3.867084         1.955534        -0.347018
 H         5.016816         0.875109        -1.174182
 H         3.045036         0.506437        -2.845753
