19
Iteration:  3772charge 0 multiplicity 1
 C        -0.061293         0.180001         0.259728
 C         1.294352        -0.068326        -0.289460
 C         1.786194        -1.478766        -0.715401
 C         3.181673        -1.020436        -1.099556
 C         3.569573        -0.214687         0.279249
 C         3.918950         0.986398        -0.724262
 C         2.907107         0.359300        -1.737885
 O         1.600607         0.738284        -1.282808
 O         2.255690         0.109822         0.839021
 H        -0.183238        -0.596530         1.050528
 H        -0.159385         1.260224         0.570768
 H        -0.831320         0.137483        -0.629301
 H         1.690232        -2.069945         0.198887
 H         1.384596        -1.956533        -1.641229
 H         3.928806        -1.779060        -1.302468
 H         4.321749        -0.592037         1.006849
 H         3.668930         1.973858        -0.358813
 H         4.939151         0.932374        -1.115140
 H         2.985317         0.459813        -2.812872
