19
Iteration:  1843charge 0 multiplicity 1
 C        -0.173418         0.111609         0.288274
 C         1.353945        -0.102693        -0.067885
 C         1.701977        -1.502283        -0.848525
 C         3.095415        -1.073262        -1.125767
 C         3.543890        -0.113957         0.161749
 C         3.988666         0.960617        -0.813777
 C         2.943080         0.380752        -1.730026
 O         1.643829         0.719344        -1.266042
 O         2.339759         0.201756         0.975744
 H        -0.501378        -0.694615         1.043572
 H        -0.145844         1.119460         0.774571
 H        -0.815289         0.163917        -0.770357
 H         1.532277        -2.422308        -0.314287
 H         1.062092        -1.476134        -1.753008
 H         3.900074        -1.859971        -1.424422
 H         4.305137        -0.605533         0.821258
 H         3.946208         2.002804        -0.596990
 H         5.012872         0.757791        -1.119258
 H         3.132197         0.611032        -2.838910
