19
Iteration:  1438charge 0 multiplicity 1
 C        -0.123985         0.111133         0.419231
 C         1.253261        -0.109640        -0.149753
 C         1.796280        -1.399691        -0.736179
 C         3.144961        -1.019233        -1.209314
 C         3.511098        -0.258196         0.128272
 C         3.970091         0.987996        -0.687673
 C         3.009514         0.439051        -1.765914
 O         1.611757         0.777499        -1.321383
 O         2.291138         0.078705         0.849203
 H        -0.329723        -0.586573         1.170239
 H        -0.134080         1.047479         0.888244
 H        -0.946260         0.018525        -0.275614
 H         1.710439        -2.067657         0.141028
 H         1.094551        -1.887061        -1.496130
 H         3.755049        -1.662026        -1.821990
 H         4.114688        -0.685729         0.952509
 H         4.104786         2.069388        -0.450560
 H         5.050004         0.613979        -1.131923
 H         3.006813         0.686202        -2.870791
