19
Iteration:  4808
 C        -0.188511         0.128633         0.312069
 C         1.291430        -0.010377        -0.187742
 C         1.674921        -1.534906        -0.689232
 C         3.188780        -1.075861        -1.066174
 C         3.620953        -0.181158         0.158479
 C         3.981904         1.020494        -0.693729
 C         3.026312         0.332457        -1.719852
 O         1.631198         0.707141        -1.451480
 O         2.255440         0.211224         0.888517
 H        -0.429229        -0.779700         0.897287
 H        -0.256959         1.062627         0.872098
 H        -0.936483         0.231101        -0.526268
 H         1.907800        -2.160915         0.197733
 H         1.144604        -2.106209        -1.389103
 H         3.841680        -1.772431        -1.568401
 H         4.321391        -0.521010         0.940668
 H         3.508479         1.976362        -0.472687
 H         5.070271         1.032397        -0.871011
 H         3.100846         0.457189        -2.906399
