19
Iteration:  4270
 C        -0.082271         0.182239         0.344591
 C         1.315376        -0.155764        -0.239201
 C         1.808454        -1.473285        -0.802809
 C         3.165285        -1.051140        -1.126481
 C         3.499089        -0.125130         0.290494
 C         3.975126         0.922442        -0.707108
 C         2.957028         0.336838        -1.747713
 O         1.597568         0.745960        -1.363923
 O         2.228273         0.192244         0.842573
 H        -0.223919        -0.595957         1.158472
 H        -0.251339         1.207149         0.733091
 H        -0.945217         0.039005        -0.382545
 H         1.753774        -2.274842         0.178325
 H         1.089537        -1.714178        -1.599272
 H         4.099346        -1.613635        -1.389873
 H         4.168585        -0.429625         1.133424
 H         3.928946         1.914533        -0.254017
 H         5.061536         0.756621        -0.949080
 H         3.052156         0.328795        -2.899171
