19
Iteration:  1501charge 0 multiplicity 1
 C        -0.120813         0.185582         0.361319
 C         1.340982        -0.126406        -0.224602
 C         1.715765        -1.480865        -0.736226
 C         3.108186        -0.978151        -1.098921
 C         3.568496        -0.209835         0.158040
 C         3.998883         0.977789        -0.750038
 C         2.914785         0.460369        -1.797190
 O         1.591021         0.806016        -1.311358
 O         2.319828        -0.013372         0.918494
 H        -0.278149        -0.549838         1.219442
 H        -0.166689         1.167742         0.835187
 H        -0.905036         0.104302        -0.482997
 H         1.771250        -2.233606         0.023597
 H         1.174493        -1.868277        -1.610458
 H         3.861695        -1.573701        -1.649931
 H         4.375108        -0.572596         0.804369
 H         3.859162         1.964648        -0.362848
 H         4.945468         0.666434        -1.052610
 H         3.079013         0.532025        -2.849559
