19
Iteration:  3099
 C        -0.104892         0.213820         0.264173
 C         1.306444        -0.149324        -0.151156
 C         1.726515        -1.490262        -0.774600
 C         3.140841        -1.051068        -1.043343
 C         3.532542        -0.175306         0.153920
 C         3.924252         0.981320        -0.689614
 C         2.938560         0.377298        -1.783896
 O         1.645563         0.674645        -1.337393
 O         2.326251         0.181902         0.902751
 H        -0.124059        -0.059227         1.355249
 H        -0.148194         1.329071         0.218070
 H        -0.774653        -0.329871        -0.401154
 H         1.691685        -2.321735        -0.078719
 H         1.311235        -1.789122        -1.752000
 H         3.853506        -1.778595        -1.344935
 H         4.150203        -0.665347         0.900287
 H         3.613312         1.991566        -0.418914
 H         4.967266         0.880629        -0.899023
 H         2.947354         0.819235        -2.793431
