19
Iteration:  4413
 C        -0.168660         0.168218         0.236332
 C         1.273741        -0.096827        -0.213869
 C         1.766220        -1.507177        -0.681127
 C         3.159826        -1.025563        -0.986235
 C         3.628104        -0.183685         0.207087
 C         3.967838         0.983711        -0.750133
 C         2.908712         0.391926        -1.730317
 O         1.632604         0.724936        -1.351995
 O         2.275337         0.126541         0.831262
 H        -0.492137        -0.654028         0.933063
 H        -0.177864         1.166624         0.820168
 H        -0.797553         0.400134        -0.637220
 H         1.513646        -2.154202         0.168581
 H         1.349583        -1.862047        -1.562295
 H         3.921977        -1.706449        -1.324167
 H         4.291459        -0.714598         0.925851
 H         3.933903         2.064007        -0.493651
 H         5.039093         0.880144        -1.094272
 H         3.067173         0.450023        -2.850218
