19
Iteration:  4100charge 0 multiplicity 1
 C        -0.135223         0.122803         0.244744
 C         1.323315        -0.086487        -0.117737
 C         1.794839        -1.522659        -0.794128
 C         3.137570        -0.986341        -1.053434
 C         3.569666        -0.181813         0.267617
 C         3.962615         0.947714        -0.752654
 C         2.942663         0.338950        -1.754742
 O         1.571215         0.747979        -1.313473
 O         2.295753         0.154578         0.844519
 H        -0.497356        -0.215781         1.282439
 H        -0.252434         1.277692         0.230979
 H        -0.881969        -0.193084        -0.523715
 H         1.942493        -2.155581         0.057249
 H         0.997249        -1.480910        -1.602053
 H         3.900084        -1.568492        -1.586928
 H         4.313500        -0.568733         0.990304
 H         3.897001         2.035731        -0.435389
 H         5.042170         0.599963        -1.030472
 H         3.127972         0.500972        -2.817141
