19
Iteration:  1996
 C        -0.082783         0.068489         0.292247
 C         1.284006        -0.113807        -0.217698
 C         1.701991        -1.460850        -0.716297
 C         3.112839        -1.052803        -0.967457
 C         3.634185        -0.295403         0.191164
 C         4.072492         0.942764        -0.730276
 C         2.902986         0.483330        -1.693615
 O         1.541531         0.775334        -1.300953
 O         2.309439         0.188391         0.714968
 H        -0.447407        -0.560369         1.099350
 H        -0.119064         1.021469         0.797894
 H        -0.855930         0.123741        -0.393427
 H         1.498976        -2.185357         0.038761
 H         1.212755        -1.744791        -1.606792
 H         3.813632        -1.647647        -1.610723
 H         4.247535        -0.767938         0.972033
 H         3.896857         2.000564        -0.354472
 H         5.082986         1.051194        -1.172414
 H         3.151648         0.690239        -2.758155
