19
Iteration:  3653
 C        -0.043634         0.160904         0.223409
 C         1.307213        -0.162388        -0.179216
 C         1.754483        -1.522446        -0.731931
 C         3.206603        -1.023218        -0.999782
 C         3.527860        -0.173448         0.182290
 C         3.995693         0.969608        -0.757674
 C         2.904274         0.390627        -1.687486
 O         1.538983         0.743757        -1.312584
 O         2.271752         0.160886         0.843128
 H        -0.331163        -0.561740         0.969223
 H         0.021764         1.187018         0.640249
 H        -0.723554         0.183591        -0.692984
 H         1.641556        -2.347409         0.056670
 H         1.469470        -1.656853        -1.822198
 H         3.924561        -1.747666        -1.302079
 H         4.181796        -0.363546         1.076559
 H         3.734922         1.962441        -0.466471
 H         4.942334         0.831162        -1.264647
 H         2.939864         0.622639        -2.739554
