19
Iteration:  2892
 C        -0.194960         0.119105         0.278220
 C         1.303162        -0.064410        -0.230399
 C         1.772300        -1.482890        -0.799365
 C         3.156378        -1.110569        -0.952667
 C         3.618835        -0.157417         0.222287
 C         3.941658         0.933825        -0.795722
 C         2.975458         0.420996        -1.767798
 O         1.594377         0.796100        -1.295321
 O         2.293223         0.141487         0.866009
 H        -0.036456        -0.233963         1.319162
 H        -0.358970         1.177899         0.396935
 H        -1.059182        -0.410387        -0.214604
 H         1.781406        -2.281557         0.059752
 H         1.226840        -1.893787        -1.714406
 H         3.888795        -1.756061        -1.437389
 H         4.203544        -0.568576         1.007997
 H         3.946309         1.998449        -0.454115
 H         4.934239         0.644289        -1.236087
 H         3.004173         0.683984        -2.777026
