19
Iteration:  3016charge 0 multiplicity 1
 C        -0.109296         0.072128         0.250331
 C         1.270463        -0.053421        -0.208728
 C         1.651468        -1.481830        -0.712212
 C         3.188752        -1.029209        -1.004299
 C         3.559854        -0.227967         0.215221
 C         3.967364         0.988210        -0.734423
 C         2.986758         0.375419        -1.694743
 O         1.579769         0.714211        -1.360116
 O         2.376147         0.208511         0.817585
 H        -0.455628        -0.786540         0.833250
 H        -0.006815         0.932170         0.991955
 H        -0.824722         0.383474        -0.483417
 H         1.368362        -2.344733        -0.022240
 H         1.165201        -1.724917        -1.742335
 H         3.904301        -1.826526        -1.423355
 H         4.206703        -0.374395         1.125790
 H         3.893683         2.022530        -0.343146
 H         4.950549         0.805193        -1.270406
 H         2.929455         0.692427        -2.784667
