19
Iteration:  1921
 C        -0.008678         0.202942         0.338658
 C         1.264093        -0.126323        -0.193137
 C         1.707092        -1.554461        -0.806920
 C         3.187250        -1.060223        -1.026340
 C         3.612145        -0.250300         0.224507
 C         3.923539         0.997005        -0.698497
 C         2.896070         0.458153        -1.714591
 O         1.531902         0.731925        -1.383991
 O         2.339362         0.150609         0.828390
 H        -0.106385        -0.228165         1.423997
 H        -0.092995         1.339635         0.496258
 H        -0.867027        -0.083009        -0.284370
 H         1.438646        -2.425313        -0.253212
 H         1.216477        -1.544569        -1.738882
 H         3.852545        -1.829843        -1.510615
 H         4.292699        -0.591712         1.025195
 H         3.950721         1.970822        -0.206651
 H         4.846173         0.937589        -1.193280
 H         3.155701         0.591563        -2.818866
