19
Iteration:  1722charge 0 multiplicity 1
 C        -0.112857         0.049019         0.294012
 C         1.284058        -0.107805        -0.174858
 C         1.663922        -1.522868        -0.720148
 C         2.987783        -0.974424        -1.173369
 C         3.631609        -0.187749         0.178219
 C         4.066698         0.959404        -0.711912
 C         2.951728         0.408181        -1.740270
 O         1.635871         0.812665        -1.294942
 O         2.338042         0.169648         0.874620
 H        -0.215176        -0.513323         1.204145
 H        -0.132688         1.138824         0.465676
 H        -0.899431        -0.329900        -0.508834
 H         1.726033        -2.288579        -0.005333
 H         0.998012        -2.113974        -1.250350
 H         3.707852        -1.625827        -1.631197
 H         4.268532        -0.682922         0.955832
 H         3.991237         1.950218        -0.421561
 H         5.031494         0.976609        -1.125974
 H         2.875041         0.554882        -2.840548
