19
Iteration:  3454
 C        -0.167520         0.100591         0.297855
 C         1.318118        -0.115045        -0.247438
 C         1.719670        -1.452837        -0.797342
 C         3.074905        -1.064860        -1.060139
 C         3.590100        -0.207355         0.251227
 C         3.901729         0.958910        -0.711628
 C         3.011917         0.328345        -1.724049
 O         1.627878         0.753470        -1.352319
 O         2.355658         0.252875         0.890824
 H        -0.572926        -0.654168         1.044358
 H        -0.003419         1.064151         0.861170
 H        -0.759890        -0.042850        -0.582559
 H         1.690403        -2.330296        -0.080244
 H         1.190452        -1.894038        -1.748097
 H         4.082908        -1.659931        -1.261095
 H         4.437282        -0.371945         0.958204
 H         3.520109         1.977287        -0.445752
 H         4.859742         0.991717        -1.152463
 H         3.039740         0.510322        -2.775074
