19
Iteration:   157charge 0 multiplicity 1
 C        -0.044125         0.051413         0.385540
 C         1.320474        -0.129322        -0.199930
 C         1.707365        -1.559034        -0.774067
 C         3.063233        -0.961588        -1.179255
 C         3.609154        -0.255995         0.157415
 C         4.027997         0.857449        -0.750393
 C         2.861318         0.547872        -1.710018
 O         1.578974         0.837668        -1.233193
 O         2.327853         0.185924         0.829357
 H        -0.391320        -0.888001         0.907123
 H        -0.123347         0.963434         0.982176
 H        -0.804239         0.229588        -0.377423
 H         1.693929        -2.282643         0.095561
 H         1.091505        -1.854112        -1.631964
 H         3.803098        -1.519912        -1.787904
 H         4.278120        -0.680826         0.961531
 H         4.134580         1.901173        -0.344286
 H         4.967620         0.646490        -1.237667
 H         2.902206         0.764990        -2.720278
