19
Iteration:   529
 C        -0.100912         0.196236         0.441709
 C         1.324039        -0.125379        -0.136150
 C         1.744074        -1.561974        -0.762693
 C         3.086073        -0.983836        -1.259220
 C         3.543695        -0.244139         0.074941
 C         4.009015         0.963866        -0.730285
 C         2.913019         0.492439        -1.694104
 O         1.613346         0.779649        -1.270230
 O         2.333312         0.071642         0.869292
 H        -0.618374        -0.580389         1.053863
 H        -0.266087         1.161921         0.967587
 H        -0.805407         0.193992        -0.477755
 H         1.819335        -2.352527         0.011015
 H         1.072169        -1.887080        -1.621523
 H         3.869709        -1.543599        -1.742579
 H         4.187544        -0.804110         0.864103
 H         3.936737         1.909777        -0.235376
 H         5.051413         0.896237        -1.250566
 H         2.987617         0.799583        -2.826372
