19
Iteration:  2125
 C        -0.082937         0.084413         0.375947
 C         1.312065        -0.083556        -0.222811
 C         1.724987        -1.442666        -0.836362
 C         3.144057        -1.059664        -1.011025
 C         3.539501        -0.240722         0.184528
 C         4.018005         0.960690        -0.738695
 C         2.920913         0.321136        -1.723096
 O         1.634652         0.801771        -1.272224
 O         2.262744         0.234040         0.815254
 H        -0.137467        -0.450476         1.321535
 H        -0.192985         1.139459         0.427502
 H        -0.984679        -0.255294        -0.251539
 H         1.386269        -2.410331        -0.237360
 H         1.368842        -1.506942        -1.991340
 H         3.892833        -1.755801        -1.447927
 H         4.297067        -0.670749         0.845489
 H         3.646709         1.915707        -0.289871
 H         5.066676         0.810451        -1.089267
 H         2.987130         0.403227        -2.778947
