19
Iteration:  4456
 C        -0.090632         0.163820         0.278192
 C         1.279317        -0.151060        -0.214203
 C         1.682409        -1.481786        -0.729720
 C         3.140127        -1.027129        -0.974038
 C         3.505539        -0.151010         0.180097
 C         3.993453         1.023502        -0.766176
 C         2.990012         0.346981        -1.743836
 O         1.659241         0.669326        -1.342972
 O         2.270220         0.184596         0.880454
 H        -0.429163        -0.757277         0.858580
 H        -0.183898         1.184241         0.822439
 H        -0.666671         0.224897        -0.677370
 H         1.755765        -2.204191        -0.005333
 H         1.272412        -1.704920        -1.631275
 H         3.774096        -1.756594        -1.414216
 H         4.267916        -0.451122         0.946986
 H         3.790365         1.987678        -0.237923
 H         5.035502         0.801784        -1.228315
 H         3.115094         0.593131        -2.859029
