19
Iteration:   630charge 0 multiplicity 1
 C         0.034758         0.189935         0.363364
 C         1.331944        -0.173342        -0.232881
 C         1.744656        -1.519128        -0.744674
 C         3.097831        -1.073405        -1.145390
 C         3.621444        -0.225140         0.143212
 C         3.936337         0.971618        -0.734821
 C         2.884011         0.522022        -1.731631
 O         1.516264         0.898595        -1.224101
 O         2.305014        -0.043868         0.808253
 H        -0.229598        -0.276454         1.405694
 H         0.199079         1.265648         0.562895
 H        -0.816267         0.061183        -0.249114
 H         1.637023        -2.200991         0.139978
 H         1.008832        -1.902345        -1.512176
 H         3.851024        -1.673610        -1.695149
 H         4.233478        -0.825408         0.821113
 H         3.812647         2.003611        -0.484203
 H         5.014681         0.932169        -1.068551
 H         2.941285         0.887541        -2.738604
