19
Iteration:  1302charge 0 multiplicity 1
 C        -0.054661         0.167934         0.342779
 C         1.330993        -0.107855        -0.171367
 C         1.717260        -1.578364        -0.762326
 C         3.101939        -1.069486        -1.156610
 C         3.524647        -0.192430         0.202895
 C         3.933288         0.975353        -0.737156
 C         2.924792         0.428004        -1.785180
 O         1.620632         0.856598        -1.197764
 O         2.335012         0.078664         0.804897
 H        -0.346572        -0.796436         0.918725
 H        -0.077394         1.179758         0.913886
 H        -0.518168         0.178953        -0.614061
 H         1.764067        -2.297557         0.052846
 H         1.022604        -1.850513        -1.521336
 H         3.782385        -1.802686        -1.642010
 H         4.329811        -0.495568         0.880000
 H         3.673002         2.086026        -0.668285
 H         5.031811         0.864453        -0.887748
 H         2.916005         0.753584        -2.803833
