19
Iteration:    44
 C        -0.015026         0.024591         0.363079
 C         1.340996        -0.096352        -0.135072
 C         1.643006        -1.427565        -0.814664
 C         3.045201        -0.980135        -1.175018
 C         3.559722        -0.200607         0.192827
 C         4.053880         0.891156        -0.765114
 C         2.864616         0.470459        -1.741427
 O         1.608498         0.816630        -1.246148
 O         2.318389         0.106179         0.862663
 H         0.098794        -0.449724         1.264237
 H        -0.369028         1.024995         0.433883
 H        -0.629273        -0.581609        -0.270736
 H         1.625145        -2.205257        -0.115130
 H         0.947207        -1.426361        -1.632906
 H         3.803569        -1.671711        -1.500035
 H         4.285251        -0.663262         0.837943
 H         4.104578         1.939148        -0.448559
 H         5.063385         0.671589        -1.160959
 H         2.935915         0.684089        -2.828144
