19
Iteration:   901charge 0 multiplicity 1
 C         0.009428         0.154792         0.442339
 C         1.371194        -0.035460        -0.173274
 C         1.677982        -1.440248        -0.731463
 C         3.119373        -1.017453        -1.235615
 C         3.555311        -0.211938         0.168987
 C         3.972409         0.970500        -0.684121
 C         2.898166         0.491495        -1.807344
 O         1.547172         0.709122        -1.329185
 O         2.311807         0.026430         0.839667
 H        -0.284912        -0.758310         1.025940
 H        -0.064383         0.936811         1.261220
 H        -0.687230         0.287227        -0.319470
 H         1.721020        -2.374740        -0.152131
 H         1.018738        -1.671494        -1.558058
 H         3.900341        -1.756242        -1.410564
 H         4.231241        -0.762001         0.818434
 H         3.662396         1.885439        -0.224047
 H         5.124930         0.892066        -1.032822
 H         2.993088         0.873145        -2.799955
