19
Iteration:   637
 C        -0.060931         0.205335         0.388650
 C         1.340706        -0.154379        -0.181553
 C         1.714437        -1.500104        -0.780394
 C         3.139229        -1.022979        -1.215336
 C         3.585791        -0.295460         0.122108
 C         3.956866         1.002492        -0.750628
 C         2.889066         0.472350        -1.725328
 O         1.558648         0.829898        -1.215678
 O         2.326066        -0.003535         0.860202
 H        -0.206670        -0.323307         1.326254
 H         0.001959         1.274558         0.608375
 H        -0.931075         0.222896        -0.296478
 H         1.864017        -2.240011        -0.002665
 H         1.069488        -1.838812        -1.596100
 H         3.868350        -1.677322        -1.674876
 H         4.312267        -0.564156         0.938593
 H         3.713952         2.004679        -0.398519
 H         4.959950         0.882715        -1.125286
 H         3.015636         0.805222        -2.844804
