19
Iteration:  4330charge 0 multiplicity 1
 C        -0.098958         0.208213         0.217285
 C         1.323462        -0.174089        -0.153338
 C         1.780107        -1.499836        -0.698554
 C         3.139128        -1.018199        -1.070705
 C         3.535002        -0.182645         0.201565
 C         3.955764         0.937305        -0.759164
 C         2.948170         0.435909        -1.743378
 O         1.632814         0.726184        -1.315587
 O         2.254944         0.177957         0.883982
 H        -0.348391        -0.130896         1.188953
 H        -0.265757         1.263361         0.168632
 H        -0.682648        -0.421838        -0.429749
 H         1.556014        -2.471176        -0.022699
 H         1.049135        -1.661382        -1.617580
 H         3.988011        -1.608740        -1.354464
 H         4.207412        -0.736530         0.836369
 H         3.803725         1.913436        -0.283424
 H         4.918459         0.710418        -1.189677
 H         3.184918         0.462357        -2.776322
