19
Iteration:  3559charge 0 multiplicity 1
 C        -0.094058         0.127341         0.290674
 C         1.303560        -0.096924        -0.177589
 C         1.751728        -1.414296        -0.727176
 C         3.161785        -1.029402        -1.036419
 C         3.505781        -0.120667         0.226087
 C         3.958326         0.924982        -0.752276
 C         2.966927         0.338156        -1.737078
 O         1.655455         0.762077        -1.361169
 O         2.223633         0.107420         0.845499
 H        -0.237800        -0.519620         1.159823
 H        -0.417503         1.141248         0.519548
 H        -0.821559        -0.241310        -0.472171
 H         1.970678        -2.074894         0.089804
 H         1.399739        -1.873438        -1.603257
 H         3.904943        -1.551218        -1.597571
 H         4.194262        -0.598818         0.930081
 H         3.925570         1.951381        -0.323009
 H         5.007672         0.633362        -1.139148
 H         2.963632         0.733735        -2.812050
