19
Iteration:  4029charge 0 multiplicity 1
 C        -0.047461         0.137401         0.290880
 C         1.271608        -0.152376        -0.193580
 C         1.649492        -1.461089        -0.735832
 C         3.197055        -1.018175        -1.055322
 C         3.536549        -0.214758         0.213084
 C         3.952814         1.001438        -0.688173
 C         2.992620         0.430860        -1.731655
 O         1.583901         0.656728        -1.336808
 O         2.301436         0.204400         0.794547
 H        -0.472004        -0.576216         0.944446
 H         0.034061         1.032360         0.919105
 H        -0.818481         0.336715        -0.516698
 H         1.709878        -2.266927         0.080744
 H         1.258392        -1.703752        -1.753401
 H         4.064907        -1.683918        -1.407570
 H         4.268889        -0.622735         0.955548
 H         3.722483         1.994026        -0.315905
 H         4.951295         0.910182        -1.023988
 H         3.087349         0.383671        -2.865186
