19
Iteration:  3910
 C        -0.086967         0.141446         0.276095
 C         1.241418        -0.145315        -0.222816
 C         1.702606        -1.541056        -0.771511
 C         3.152858        -1.044827        -1.017400
 C         3.492868        -0.180817         0.203249
 C         4.011952         1.018098        -0.739324
 C         2.955036         0.473120        -1.718776
 O         1.621810         0.733604        -1.345192
 O         2.316707         0.110172         0.835460
 H        -0.079503        -0.179483         1.266006
 H        -0.079831         1.227050         0.363429
 H        -1.023465        -0.096029        -0.188748
 H         1.922788        -2.208319         0.070367
 H         1.251742        -1.956355        -1.702681
 H         3.970191        -1.801627        -1.251197
 H         4.068973        -0.395628         1.107140
 H         3.904890         2.018864        -0.258422
 H         5.048444         0.733182        -1.027241
 H         2.966293         0.768811        -2.806841
