19
Iteration:  3600charge 0 multiplicity 1
 C        -0.061479         0.136786         0.301930
 C         1.344407        -0.091137        -0.238321
 C         1.719928        -1.467540        -0.761511
 C         3.171203        -1.007575        -1.022219
 C         3.566303        -0.206280         0.250957
 C         3.917170         0.993403        -0.701743
 C         2.928884         0.397869        -1.695594
 O         1.601103         0.676017        -1.371153
 O         2.286643         0.170695         0.801186
 H        -0.356584        -0.654741         0.923028
 H        -0.051338         1.001653         0.905913
 H        -0.682846         0.170411        -0.609761
 H         1.568660        -2.168887         0.136176
 H         1.165511        -1.693335        -1.741705
 H         3.825746        -1.717288        -1.432916
 H         4.235455        -0.300872         1.146936
 H         3.677330         1.995427        -0.358672
 H         4.921080         0.692650        -1.131678
 H         3.063484         0.323260        -2.786735
