19
Iteration:   224charge 0 multiplicity 1
 C         0.026970         0.221873         0.473767
 C         1.331358        -0.234765        -0.122437
 C         1.745307        -1.451113        -0.900405
 C         3.155437        -0.945249        -1.187239
 C         3.548583        -0.246135         0.229456
 C         3.954533         0.919399        -0.736092
 C         2.875205         0.461046        -1.767920
 O         1.499439         0.764964        -1.256001
 O         2.321710         0.057545         0.827369
 H        -0.218900        -0.090813         1.485185
 H         0.096455         1.324627         0.267713
 H        -0.839905        -0.022411        -0.275349
 H         1.758854        -2.366294        -0.216429
 H         1.049339        -1.578684        -1.784706
 H         3.878837        -1.557493        -1.704500
 H         4.278264        -0.770546         0.894109
 H         3.838087         1.923794        -0.331370
 H         5.015600         0.757475        -1.039371
 H         2.959537         0.775887        -2.767852
