19
Iteration:  1291
 C        -0.056951         0.178713         0.311336
 C         1.338563        -0.075022        -0.202159
 C         1.788793        -1.585179        -0.757195
 C         3.123477        -1.046748        -1.127605
 C         3.549771        -0.223245         0.125963
 C         3.908460         0.988281        -0.795319
 C         2.906591         0.373866        -1.740041
 O         1.619551         0.926418        -1.207462
 O         2.279522         0.024464         0.858749
 H        -0.491911        -0.569011         1.072886
 H        -0.039950         1.116108         0.986980
 H        -0.863288         0.366563        -0.361357
 H         1.821063        -2.265675         0.090129
 H         1.196796        -2.029892        -1.527982
 H         3.997146        -1.613837        -1.497630
 H         4.212286        -0.658286         0.887821
 H         3.756231         1.937046        -0.188710
 H         4.877966         0.970928        -1.334093
 H         3.050572         0.466941        -2.793988
