19
Iteration:   967
 C        -0.062869         0.121258         0.345677
 C         1.346305        -0.106933        -0.081520
 C         1.713278        -1.491883        -0.842397
 C         3.061176        -0.941448        -1.196365
 C         3.579308        -0.232436         0.220309
 C         3.953710         0.947318        -0.743542
 C         2.891289         0.383170        -1.738542
 O         1.538915         0.839589        -1.318699
 O         2.421309         0.070056         0.915986
 H        -0.228111        -0.510433         1.331254
 H        -0.315818         1.249680         0.599173
 H        -0.708114        -0.197103        -0.479188
 H         1.768099        -2.323905        -0.082540
 H         0.994958        -1.787340        -1.596152
 H         3.829804        -1.575162        -1.642560
 H         4.248120        -0.726977         0.922608
 H         3.878627         1.992102        -0.553425
 H         5.007572         0.761762        -1.308534
 H         2.982765         0.678023        -2.770652
