19
Iteration:  3038
 C        -0.050228         0.078370         0.319966
 C         1.323175        -0.086656        -0.119466
 C         1.716359        -1.497125        -0.769162
 C         3.098945        -1.014735        -1.090399
 C         3.551790        -0.150362         0.253307
 C         4.031537         0.968120        -0.715471
 C         2.950611         0.304606        -1.742590
 O         1.648725         0.765229        -1.398795
 O         2.242883         0.209158         0.828280
 H        -0.526680        -0.676312         0.923138
 H        -0.303125         0.972873         0.982342
 H        -0.659740         0.198505        -0.562065
 H         1.677543        -2.146670         0.172026
 H         0.978061        -2.003431        -1.522982
 H         3.664651        -1.805754        -1.742557
 H         4.242771        -0.620970         1.033181
 H         3.637909         1.978733        -0.492092
 H         5.151434         0.987745        -0.908552
 H         3.016069         0.563744        -2.855176
