19
Iteration:  4268
 C        -0.093007         0.177482         0.351075
 C         1.299262        -0.150342        -0.245289
 C         1.804941        -1.523620        -0.802435
 C         3.168113        -1.045661        -1.141866
 C         3.519670        -0.114384         0.292564
 C         3.969815         0.911040        -0.686286
 C         2.947897         0.317312        -1.740498
 O         1.596031         0.758888        -1.364601
 O         2.240485         0.213548         0.845205
 H        -0.251598        -0.604512         1.152842
 H        -0.187187         1.222927         0.754181
 H        -0.945130         0.054026        -0.443974
 H         1.725963        -2.217499         0.075526
 H         1.168166        -1.649693        -1.661627
 H         4.099353        -1.609456        -1.338496
 H         4.211334        -0.400776         1.101497
 H         3.888477         1.953667        -0.286765
 H         5.062715         0.693132        -0.975578
 H         3.046854         0.399755        -2.863883
