19
Iteration:  3891charge 0 multiplicity 1
 C        -0.091128         0.185552         0.305157
 C         1.325604        -0.077422        -0.187558
 C         1.775466        -1.533686        -0.764156
 C         3.146156        -1.016517        -1.076185
 C         3.666683        -0.176246         0.235683
 C         3.910633         0.988580        -0.703239
 C         2.958452         0.320023        -1.690836
 O         1.572954         0.766737        -1.324918
 O         2.252225         0.106558         0.813066
 H        -0.314799        -0.427485         1.228591
 H        -0.347020         1.263342         0.195453
 H        -0.877870        -0.087278        -0.561132
 H         1.520226        -2.201545         0.018142
 H         1.309100        -1.571392        -1.772654
 H         3.966947        -1.569811        -1.562528
 H         4.269925        -0.686918         1.028734
 H         3.536377         1.999820        -0.392382
 H         5.003803         0.977511        -1.101192
 H         3.036421         0.307504        -2.778561
