19
Iteration:  3549
 C        -0.066304         0.107449         0.229545
 C         1.350655        -0.030860        -0.294147
 C         1.754556        -1.495849        -0.723393
 C         3.103171        -1.031309        -1.099477
 C         3.570443        -0.108151         0.273109
 C         3.961664         0.965063        -0.713726
 C         2.940814         0.366510        -1.721041
 O         1.591740         0.773448        -1.338032
 O         2.268646         0.087890         0.900521
 H        -0.112141        -0.439510         1.214433
 H        -0.302056         1.165631         0.503765
 H        -0.711256        -0.431301        -0.507597
 H         1.615266        -2.178885         0.100602
 H         0.973807        -1.739652        -1.432484
 H         3.727580        -1.898637        -1.409456
 H         4.301745        -0.467359         1.021637
 H         3.775493         2.051022        -0.525401
 H         5.049199         0.733853        -0.969324
 H         3.142543         0.414457        -2.871917
