19
Iteration:  4386charge 0 multiplicity 1
 C        -0.027820         0.124361         0.344892
 C         1.327493        -0.102469        -0.183610
 C         1.701843        -1.535478        -0.794303
 C         3.065728        -1.087300        -1.070455
 C         3.564673        -0.106544         0.278133
 C         3.940573         0.968028        -0.677872
 C         3.003395         0.349482        -1.776617
 O         1.621017         0.724432        -1.392106
 O         2.261176         0.250144         0.847120
 H        -0.256728        -0.630341         1.089707
 H        -0.200218         1.139768         0.626612
 H        -0.558720         0.011109        -0.623019
 H         1.534623        -2.250518         0.025153
 H         1.120817        -1.733156        -1.800506
 H         3.771705        -1.940384        -1.353870
 H         4.237317        -0.637476         0.942326
 H         3.633232         1.992504        -0.419561
 H         5.044111         0.985411        -0.856447
 H         3.253986         0.414847        -2.817495
