19
Iteration:  3724charge 0 multiplicity 1
 C        -0.107581         0.144419         0.301750
 C         1.292674        -0.085695        -0.245466
 C         1.790904        -1.471538        -0.771818
 C         3.123426        -1.026126        -1.043999
 C         3.564733        -0.174788         0.229452
 C         3.930076         0.967799        -0.732375
 C         2.973986         0.385791        -1.655937
 O         1.593835         0.722263        -1.345396
 O         2.282924         0.133727         0.826953
 H        -0.069641        -0.326972         1.293930
 H        -0.395202         1.201895         0.239553
 H        -0.783198        -0.348366        -0.346530
 H         1.763585        -2.189880         0.016703
 H         1.168165        -1.628235        -1.606943
 H         3.872125        -1.620107        -1.626010
 H         4.256007        -0.581074         0.959240
 H         3.705829         2.000034        -0.324108
 H         5.016299         0.818684        -0.997689
 H         3.223774         0.361664        -2.757092
