19
Iteration:  4547
 C        -0.045367         0.141512         0.197197
 C         1.260330        -0.094224        -0.238675
 C         1.686193        -1.540473        -0.704179
 C         3.199920        -1.075446        -0.975868
 C         3.546575        -0.192705         0.266775
 C         3.949115         1.019294        -0.747103
 C         2.932711         0.365637        -1.779744
 O         1.581908         0.793870        -1.323242
 O         2.363017         0.163896         0.876540
 H        -0.350512        -0.218710         1.167916
 H        -0.264887         1.185497         0.033771
 H        -0.704486        -0.460441        -0.501352
 H         1.426225        -2.421576         0.044161
 H         1.359580        -1.691354        -1.734614
 H         3.995960        -1.773794        -1.382986
 H         4.203874        -0.563455         1.082674
 H         3.552748         1.953819        -0.274057
 H         4.959796         0.866922        -1.119716
 H         2.959066         0.580650        -2.850366
