19
Iteration:  2547charge 0 multiplicity 1
 C        -0.114297         0.222815         0.325266
 C         1.293820        -0.090238        -0.223623
 C         1.792754        -1.503479        -0.718628
 C         3.162371        -1.057829        -1.010846
 C         3.538335        -0.199282         0.137547
 C         3.931997         0.951896        -0.735646
 C         2.946098         0.411070        -1.804328
 O         1.621710         0.757923        -1.344161
 O         2.273098         0.121412         0.857897
 H        -0.176866        -0.515706         1.156272
 H        -0.125662         1.258914         0.640477
 H        -0.906985        -0.083029        -0.421531
 H         1.750468        -2.117742         0.361750
 H         1.177062        -2.172314        -1.448142
 H         3.868706        -1.848532        -1.361133
 H         4.241147        -0.670060         0.910576
 H         3.756125         1.950567        -0.259806
 H         5.026029         0.922128        -0.962284
 H         3.065477         0.651356        -2.942906
