19
Iteration:  2986charge 0 multiplicity 1
 C        -0.073147         0.191178         0.249184
 C         1.279941        -0.089839        -0.203270
 C         1.739790        -1.642372        -0.718141
 C         3.142173        -1.005012        -1.122386
 C         3.484324        -0.106606         0.229304
 C         3.966071         0.993373        -0.740547
 C         2.977697         0.348752        -1.749379
 O         1.636809         0.774890        -1.307019
 O         2.272696         0.107775         0.880730
 H        -0.435320        -0.539394         0.993151
 H        -0.034630         1.033009         0.977512
 H        -0.881513         0.381088        -0.471513
 H         1.918449        -2.400003         0.038732
 H         1.135898        -2.030594        -1.504958
 H         3.908848        -1.779364        -1.599669
 H         4.269063        -0.129080         1.085954
 H         3.960051         2.048124        -0.475531
 H         4.975807         0.681831        -1.064512
 H         3.033429         0.599054        -2.960247
