19
Iteration:   835
 C        -0.054806         0.057164         0.376382
 C         1.298177        -0.172257        -0.167337
 C         1.654290        -1.499046        -0.750070
 C         2.966978        -0.960587        -1.181860
 C         3.598160        -0.191028         0.151167
 C         4.009215         0.992453        -0.768136
 C         2.963028         0.478891        -1.830738
 O         1.678199         0.832893        -1.300805
 O         2.326424         0.044541         0.951398
 H        -0.169392        -0.579786         1.328295
 H         0.041822         1.095612         0.729028
 H        -0.765965        -0.284757        -0.259612
 H         1.578552        -2.318715        -0.042952
 H         0.779437        -1.590489        -1.392306
 H         3.738669        -1.596121        -1.620592
 H         4.371882        -0.586338         0.835813
 H         3.746130         1.972549        -0.318339
 H         5.111220         0.840476        -1.220415
 H         2.882688         0.803236        -2.865797
