19
Iteration:  4398charge 0 multiplicity 1
 C        -0.040717         0.154709         0.245964
 C         1.348425        -0.114644        -0.203688
 C         1.630464        -1.457175        -0.723960
 C         3.139139        -1.042423        -1.051964
 C         3.510564        -0.141556         0.247893
 C         3.991805         1.016725        -0.724835
 C         3.045001         0.318870        -1.682624
 O         1.582750         0.659013        -1.354994
 O         2.304035         0.189756         0.824549
 H        -0.404540        -0.675831         0.911956
 H        -0.173327         1.082829         0.818501
 H        -0.791649         0.055448        -0.577501
 H         1.700315        -2.330608        -0.143646
 H         0.798985        -1.656912        -1.492165
 H         3.819224        -1.772085        -1.638506
 H         4.176669        -0.328945         1.112182
 H         3.686112         1.999765        -0.315307
 H         5.053537         0.972004        -1.164744
 H         3.060451         0.520433        -2.769224
