19
Iteration:  1245
 C         0.035910         0.120155         0.401323
 C         1.346428        -0.147162        -0.119994
 C         1.673609        -1.495970        -0.855962
 C         3.096541        -1.032288        -1.122264
 C         3.559105        -0.272409         0.143837
 C         3.940665         0.939741        -0.695441
 C         2.866910         0.440921        -1.725110
 O         1.638951         0.782022        -1.322801
 O         2.291513         0.212228         0.845865
 H        -0.248960        -0.590410         1.294142
 H        -0.059682         1.163188         0.891306
 H        -0.768167        -0.080380        -0.421915
 H         1.540713        -2.391188        -0.265729
 H         1.062364        -1.601151        -1.764036
 H         3.821615        -1.651465        -1.605553
 H         4.344908        -0.692579         0.805089
 H         3.740424         1.948338        -0.297372
 H         4.979765         0.954486        -0.973563
 H         3.076786         0.660959        -2.812183
