19
Iteration:  3391charge 0 multiplicity 1
 C        -0.066528         0.152898         0.283208
 C         1.301925        -0.061664        -0.150356
 C         1.747414        -1.539391        -0.747030
 C         3.200516        -1.003683        -1.054377
 C         3.517946        -0.183297         0.215134
 C         3.964493         0.976038        -0.750381
 C         2.949695         0.331963        -1.736031
 O         1.586142         0.720393        -1.327474
 O         2.253689         0.168876         0.810782
 H        -0.463600        -0.511614         1.074602
 H        -0.147400         1.204537         0.750979
 H        -0.681774         0.259421        -0.589665
 H         1.838508        -2.328346         0.054726
 H         1.223120        -1.889866        -1.712426
 H         4.032124        -1.732407        -1.442362
 H         4.105478        -0.491716         1.113743
 H         3.696239         1.981191        -0.276059
 H         5.062529         0.920298        -1.058803
 H         3.115754         0.546269        -2.835992
