19
Iteration:   220
 C         0.017470         0.212818         0.453415
 C         1.355136        -0.222320        -0.142008
 C         1.733550        -1.446729        -0.931698
 C         3.151516        -0.967709        -1.163116
 C         3.548494        -0.273918         0.218979
 C         3.958962         0.943733        -0.749115
 C         2.879671         0.443691        -1.743273
 O         1.492603         0.769030        -1.209252
 O         2.324745         0.080604         0.804838
 H        -0.248943        -0.032562         1.497488
 H         0.110053         1.265607         0.338469
 H        -0.686989        -0.036333        -0.234684
 H         1.721393        -2.336011        -0.332281
 H         1.078734        -1.526396        -1.748614
 H         3.982461        -1.633461        -1.555818
 H         4.264123        -0.740848         0.935308
 H         3.768105         1.991137        -0.215860
 H         4.979597         0.813158        -1.135478
 H         2.819716         0.623570        -2.858052
