19
Iteration:  1078charge 0 multiplicity 1
 C        -0.062293         0.055892         0.387596
 C         1.349890        -0.099141        -0.148856
 C         1.739573        -1.461787        -0.710060
 C         3.087115        -0.985653        -1.174938
 C         3.558270        -0.301463         0.143317
 C         3.929712         0.928524        -0.783881
 C         2.909977         0.464911        -1.768808
 O         1.599010         0.844753        -1.282127
 O         2.346871         0.114330         0.909450
 H        -0.630504        -0.722552         0.831364
 H        -0.125367         1.084349         0.726952
 H        -0.688825         0.224317        -0.642912
 H         1.883724        -2.179646         0.095003
 H         1.116313        -1.786019        -1.556070
 H         3.858434        -1.672638        -1.602018
 H         4.238908        -0.680896         0.868613
 H         3.798003         1.922933        -0.436799
 H         4.917126         0.747367        -1.252203
 H         2.959709         0.765313        -2.859314
