19
Iteration:   525
 C        -0.071322         0.196537         0.439443
 C         1.302788        -0.137003        -0.087922
 C         1.726372        -1.563117        -0.816164
 C         3.047384        -0.999707        -1.258260
 C         3.553234        -0.267789         0.101086
 C         4.020953         1.003184        -0.731778
 C         2.919393         0.495167        -1.683001
 O         1.618209         0.727550        -1.268717
 O         2.349269         0.111217         0.861125
 H        -0.499637        -0.599594         0.989917
 H        -0.212345         1.194483         0.886433
 H        -0.673235         0.285172        -0.535547
 H         1.774069        -2.366145        -0.079158
 H         1.125827        -1.759787        -1.664049
 H         3.861415        -1.505073        -1.814703
 H         4.116897        -0.736704         0.917445
 H         3.788615         1.967665        -0.175772
 H         4.919131         0.872313        -1.224870
 H         2.944150         0.758737        -2.799681
