19
Iteration:  3814
 C        -0.032418         0.103045         0.284943
 C         1.316151        -0.111331        -0.236492
 C         1.715144        -1.455484        -0.788885
 C         3.181660        -1.037791        -1.020856
 C         3.524957        -0.141631         0.260888
 C         4.017793         0.966009        -0.725985
 C         2.928037         0.381217        -1.697593
 O         1.585566         0.682986        -1.329916
 O         2.257955         0.189027         0.808701
 H        -0.312252        -0.772050         0.888997
 H        -0.166509         0.948388         1.019002
 H        -0.885451         0.217259        -0.514549
 H         1.746633        -2.132210         0.009551
 H         0.968471        -1.540433        -1.586726
 H         3.949857        -1.567431        -1.615253
 H         4.144962        -0.552541         1.067398
 H         3.810372         1.993213        -0.332823
 H         5.029333         0.776987        -1.178534
 H         3.009621         0.489040        -2.795417
