19
Iteration:  3186
 C        -0.081504         0.128083         0.247325
 C         1.304651        -0.064668        -0.164508
 C         1.684447        -1.519818        -0.679065
 C         3.189789        -1.060509        -0.974127
 C         3.560079        -0.137586         0.145619
 C         3.979046         0.975622        -0.735697
 C         2.940071         0.348490        -1.799049
 O         1.594274         0.788904        -1.334237
 O         2.269403         0.120497         0.833223
 H        -0.323670        -0.707476         0.967729
 H        -0.277850         1.148657         0.782077
 H        -0.853988         0.070184        -0.515389
 H         1.652734        -2.324954         0.052532
 H         1.201855        -1.847502        -1.591712
 H         4.176123        -1.665260        -1.105478
 H         4.246723        -0.699184         0.902664
 H         3.880806         2.032165        -0.428086
 H         4.977115         0.873546        -1.112788
 H         3.185919         0.796735        -2.887285
