19
Iteration:  3448charge 0 multiplicity 1
 C        -0.125971         0.089864         0.249087
 C         1.326768        -0.086974        -0.184619
 C         1.678522        -1.504482        -0.770460
 C         3.147147        -1.020429        -1.016012
 C         3.557949        -0.193697         0.224191
 C         3.897876         0.984833        -0.754931
 C         2.943932         0.330427        -1.756425
 O         1.636155         0.748962        -1.346491
 O         2.352285         0.246166         0.914253
 H        -0.341778        -0.749393         0.883672
 H        -0.049323         1.001267         0.821961
 H        -0.788814         0.078131        -0.666172
 H         1.681843        -2.436338        -0.217323
 H         1.207501        -1.750978        -1.684860
 H         3.775501        -1.794006        -1.359043
 H         4.253124        -0.528753         1.003551
 H         3.731878         1.909208        -0.178373
 H         4.970860         0.950993        -1.175283
 H         3.236242         0.471016        -2.863716
