19
Iteration:  2515
 C        -0.102181         0.142167         0.250029
 C         1.335644        -0.164113        -0.204635
 C         1.657679        -1.496074        -0.832500
 C         3.103383        -1.060312        -0.981171
 C         3.561251        -0.114105         0.219403
 C         4.033602         0.975704        -0.820493
 C         2.936896         0.372935        -1.757422
 O         1.609033         0.745837        -1.282533
 O         2.317611         0.181396         0.955703
 H        -0.104275        -0.278409         1.269791
 H        -0.265134         1.212537         0.327903
 H        -0.947705        -0.292509        -0.345375
 H         1.392508        -2.411989        -0.073115
 H         1.131991        -1.785081        -1.799355
 H         3.809798        -1.794750        -1.408697
 H         4.416390        -0.513290         0.827891
 H         3.840466         2.031729        -0.478428
 H         5.098489         0.866169        -1.169985
 H         3.093170         0.519258        -2.857842
