19
Iteration:  4891
 C        -0.029094         0.145444         0.152296
 C         1.350119        -0.013476        -0.253528
 C         1.702076        -1.504866        -0.667179
 C         3.110563        -1.103380        -0.993728
 C         3.611428        -0.134474         0.260489
 C         3.899666         0.974881        -0.745265
 C         2.920016         0.328721        -1.772055
 O         1.609723         0.767500        -1.363410
 O         2.324108         0.123168         0.927455
 H        -0.245109        -0.352252         1.118878
 H        -0.250203         1.175119         0.508941
 H        -0.718815        -0.130058        -0.680726
 H         1.661710        -2.385450         0.018517
 H         1.013400        -1.858722        -1.586402
 H         3.734698        -1.842851        -1.581804
 H         4.225228        -0.400438         1.174214
 H         3.588999         1.966185        -0.305452
 H         4.927110         1.115717        -1.127592
 H         2.955877         0.410140        -2.798373
