19
Iteration:    75
 C        -0.127421         0.216720         0.422200
 C         1.247406        -0.193881        -0.170663
 C         1.729397        -1.503545        -0.867056
 C         3.138206        -0.979139        -1.100647
 C         3.658682        -0.275371         0.144046
 C         3.962949         0.973687        -0.744166
 C         2.848309         0.467666        -1.651517
 O         1.582715         0.787458        -1.274702
 O         2.396390         0.078993         0.812364
 H        -0.205042        -0.277395         1.312643
 H        -0.083323         1.270617         0.709137
 H        -0.936788        -0.050803        -0.299481
 H         1.641450        -2.336040        -0.255074
 H         1.085042        -1.758296        -1.720621
 H         3.884682        -1.636801        -1.505588
 H         4.369685        -0.838180         0.726228
 H         3.717920         1.914221        -0.295181
 H         4.978061         0.967313        -1.321821
 H         3.000464         0.668821        -2.800960
