19
Iteration:   757
 C        -0.057016         0.137914         0.415869
 C         1.299491        -0.141906        -0.124392
 C         1.699995        -1.477726        -0.798027
 C         3.110593        -1.045190        -1.160891
 C         3.641037        -0.236470         0.121317
 C         3.894284         0.994164        -0.756624
 C         2.908342         0.432763        -1.757413
 O         1.641799         0.912008        -1.282942
 O         2.316687        -0.020951         0.870371
 H        -0.134115        -0.423717         1.410964
 H        -0.023329         1.210433         0.603224
 H        -0.854444         0.069578        -0.313924
 H         1.700868        -2.236335        -0.030363
 H         1.180410        -1.797297        -1.721730
 H         3.788360        -1.756713        -1.644366
 H         4.370247        -0.625413         0.890331
 H         3.430628         2.024899        -0.397311
 H         5.023084         0.983237        -1.024324
 H         2.830656         0.591695        -2.912662
