19
Iteration:  3952charge 0 multiplicity 1
 C        -0.153786         0.080662         0.292148
 C         1.332849        -0.092602        -0.260579
 C         1.712764        -1.510887        -0.794259
 C         3.135376        -1.079782        -0.974068
 C         3.601189        -0.180852         0.210329
 C         3.956999         0.981047        -0.703335
 C         2.951932         0.416350        -1.702630
 O         1.616436         0.775034        -1.321985
 O         2.332777         0.168902         0.801385
 H        -0.376086        -0.344338         1.256403
 H        -0.301044         1.144474         0.586266
 H        -0.847867        -0.304716        -0.424670
 H         1.313368        -2.140057         0.106579
 H         1.107682        -1.645170        -1.756218
 H         4.019766        -1.778688        -1.238630
 H         4.361252        -0.712209         0.825634
 H         3.664522         1.972862        -0.340401
 H         4.922554         1.017573        -1.136336
 H         3.111646         0.582470        -2.826479
