19
Iteration:  2896charge 0 multiplicity 1
 C        -0.211547         0.124489         0.314044
 C         1.323076        -0.067617        -0.270770
 C         1.743241        -1.517207        -0.789051
 C         3.183545        -1.089558        -0.988316
 C         3.575163        -0.143409         0.249173
 C         3.959263         0.921010        -0.786343
 C         2.951390         0.406483        -1.766145
 O         1.595146         0.825469        -1.301540
 O         2.304889         0.139004         0.868223
 H        -0.097597        -0.238491         1.323056
 H        -0.341925         1.205927         0.372914
 H        -0.927123        -0.461647        -0.205390
 H         1.873558        -2.276885        -0.066222
 H         1.248152        -2.033215        -1.627315
 H         3.884837        -1.772291        -1.392491
 H         4.224078        -0.509832         1.081385
 H         4.007373         1.945084        -0.439030
 H         4.897686         0.699374        -1.265501
 H         3.144575         0.666829        -2.863395
