19
Iteration:  3827
 C        -0.127146         0.075031         0.310454
 C         1.304902        -0.098129        -0.220588
 C         1.793390        -1.560716        -0.734703
 C         3.155016        -1.013252        -1.008931
 C         3.551884        -0.191262         0.205102
 C         3.977374         0.916617        -0.721184
 C         2.956238         0.418311        -1.759585
 O         1.546191         0.803424        -1.350700
 O         2.269865         0.210063         0.833778
 H        -0.444158        -0.736463         1.056121
 H         0.142272         1.046047         0.823180
 H        -0.893040         0.360012        -0.559574
 H         1.488687        -2.428017        -0.166039
 H         1.543440        -1.981222        -1.735888
 H         3.957438        -1.695808        -1.245248
 H         4.297505        -0.474583         1.007691
 H         4.034952         1.967706        -0.448826
 H         5.023995         0.695161        -0.986080
 H         3.052592         0.737736        -2.786824
