19
Iteration:  4164charge 0 multiplicity 1
 C        -0.115049         0.173931         0.334222
 C         1.345007        -0.069312        -0.243329
 C         1.738955        -1.477230        -0.785862
 C         3.183323        -1.051715        -0.980416
 C         3.579879        -0.159116         0.227596
 C         3.972874         0.975647        -0.739163
 C         2.954873         0.387271        -1.764029
 O         1.585531         0.679922        -1.388691
 O         2.216436         0.150176         0.898115
 H        -0.189139        -0.359673         1.303134
 H        -0.071824         1.214884         0.648237
 H        -0.862803        -0.148739        -0.350498
 H         1.664079        -2.415670        -0.181534
 H         1.122484        -1.870581        -1.781053
 H         4.069903        -1.552679        -1.421042
 H         4.190897        -0.712976         0.971115
 H         3.939167         2.028030        -0.393045
 H         4.998370         0.730077        -1.176177
 H         2.991763         0.713905        -2.822086
