19
Iteration:  1165
 C        -0.109561         0.186471         0.373593
 C         1.259724        -0.097990        -0.115598
 C         1.686460        -1.558668        -0.798777
 C         3.112822        -1.042327        -1.100594
 C         3.673291        -0.295979         0.173061
 C         3.972199         1.010947        -0.735776
 C         2.880284         0.499210        -1.687323
 O         1.586959         0.795785        -1.302664
 O         2.394450         0.069000         0.795391
 H        -0.289021        -0.331594         1.285413
 H        -0.291263         1.249367         0.530171
 H        -1.030251        -0.078921        -0.379309
 H         1.684980        -2.538120        -0.249390
 H         1.169619        -1.686747        -1.775586
 H         3.887367        -1.669581        -1.630733
 H         4.489586        -0.529571         0.862697
 H         3.729749         1.899249        -0.265710
 H         4.901740         0.992521        -1.228079
 H         2.952263         0.696603        -2.797201
