19
Iteration:  4020
 C        -0.080122         0.165361         0.344286
 C         1.288842        -0.163334        -0.246705
 C         1.707778        -1.495771        -0.734361
 C         3.190834        -0.987952        -1.040753
 C         3.572037        -0.136518         0.214410
 C         4.025306         1.014321        -0.689420
 C         2.931437         0.299786        -1.677933
 O         1.565950         0.729721        -1.336625
 O         2.265421         0.141574         0.748327
 H        -0.582000        -0.586472         0.912720
 H         0.049128         1.096960         0.871846
 H        -0.451428         0.252872        -0.696524
 H         1.632413        -2.324523         0.068429
 H         1.035719        -1.925123        -1.608080
 H         3.938018        -1.583735        -1.569548
 H         4.120213        -0.603497         1.056454
 H         3.827458         2.011708        -0.291398
 H         5.062875         0.967637        -1.099009
 H         3.036778         0.662791        -2.732600
