19
Iteration:  4302
 C        -0.118476         0.183922         0.214850
 C         1.303332        -0.136303        -0.269584
 C         1.669612        -1.528628        -0.702321
 C         3.105331        -1.109412        -1.012842
 C         3.605880        -0.132812         0.221806
 C         3.957444         1.017202        -0.710245
 C         2.950313         0.401375        -1.706811
 O         1.618399         0.803967        -1.363014
 O         2.369589         0.098973         0.850614
 H        -0.274459        -0.312869         1.240459
 H        -0.423305         1.247129         0.384852
 H        -0.895739        -0.374331        -0.405042
 H         1.458788        -2.293755         0.110254
 H         1.023730        -1.903756        -1.454277
 H         3.949055        -1.722867        -1.477948
 H         4.361649        -0.486702         0.963975
 H         3.732695         1.949219        -0.162822
 H         5.033240         1.045653        -1.061297
 H         3.155932         0.325157        -2.825883
