19
Iteration:     2
 C        -0.041534         0.140480         0.401554
 C         1.335010        -0.113621        -0.188431
 C         1.701372        -1.467419        -0.799037
 C         3.097028        -1.004055        -1.143939
 C         3.578862        -0.230044         0.141566
 C         3.975293         0.967682        -0.736394
 C         2.899872         0.439875        -1.729026
 O         1.588260         0.809288        -1.245236
 O         2.333074         0.050408         0.815356
 H        -0.242162        -0.585690         1.251411
 H        -0.145910         1.154668         0.821478
 H        -0.815507        -0.016486        -0.352606
 H         1.655352        -2.311881        -0.063778
 H         1.080505        -1.737186        -1.662689
 H         3.834120        -1.660579        -1.601315
 H         4.271620        -0.640812         0.893490
 H         3.783273         1.986827        -0.334261
 H         4.966174         0.867453        -1.127593
 H         2.928632         0.655491        -2.766440
