19
Iteration:  3899
 C        -0.102478         0.208351         0.294555
 C         1.281866        -0.164119        -0.292681
 C         1.776838        -1.462563        -0.737101
 C         3.192906        -1.017832        -1.016537
 C         3.601128        -0.173127         0.218377
 C         3.976697         0.988176        -0.693376
 C         2.962647         0.350419        -1.728545
 O         1.551670         0.743183        -1.272993
 O         2.246323         0.112429         0.805011
 H        -0.235120        -0.254811         1.227827
 H        -0.207941         1.286600         0.413278
 H        -0.772812        -0.279202        -0.385833
 H         1.567730        -2.317468        -0.090909
 H         1.197926        -1.768747        -1.647617
 H         3.771633        -1.780164        -1.604172
 H         4.378237        -0.608485         0.850032
 H         3.753680         2.023483        -0.337185
 H         5.012739         1.017432        -1.101813
 H         3.095516         0.500791        -2.833626
