19
Iteration:  1208charge 0 multiplicity 1
 C        -0.096767         0.102216         0.420197
 C         1.350631        -0.097538        -0.216432
 C         1.659891        -1.524860        -0.744125
 C         3.068323        -1.009881        -1.093170
 C         3.598817        -0.155699         0.138819
 C         4.024825         0.988110        -0.775476
 C         2.894162         0.479763        -1.760047
 O         1.660723         0.866874        -1.308277
 O         2.296698        -0.016302         0.882421
 H        -0.178748        -0.491834         1.295061
 H        -0.441878         1.119707         0.587402
 H        -0.884308        -0.356146        -0.396219
 H         1.521723        -2.224751         0.135719
 H         1.085658        -1.834248        -1.650610
 H         3.721450        -1.719386        -1.673610
 H         4.260672        -0.588819         0.908805
 H         4.148009         1.999673        -0.387203
 H         4.958989         0.648460        -1.279484
 H         3.100085         0.717561        -2.825742
