19
Iteration:  1676charge 0 multiplicity 1
 C         0.005789         0.189469         0.408024
 C         1.320731        -0.182928        -0.270042
 C         1.678096        -1.512877        -0.813818
 C         3.105028        -0.971712        -1.052926
 C         3.540470        -0.129004         0.231044
 C         3.987869         0.957542        -0.782374
 C         2.996968         0.418530        -1.720698
 O         1.573594         0.770858        -1.368838
 O         2.290864         0.056019         0.891174
 H        -0.258248        -0.546701         1.191112
 H        -0.043218         1.209051         0.870317
 H        -1.001380         0.071743        -0.104843
 H         1.471587        -2.410044        -0.250682
 H         1.055130        -1.878718        -1.620847
 H         3.766582        -1.625177        -1.597963
 H         4.263452        -0.573978         0.939331
 H         3.856445         1.976117        -0.430327
 H         5.024639         1.001032        -1.035801
 H         3.022795         0.578978        -2.774675
