19
Iteration:  2683charge 0 multiplicity 1
 C        -0.041601         0.124736         0.355874
 C         1.292476        -0.195206        -0.179951
 C         1.761558        -1.561973        -0.732949
 C         3.071725        -1.033054        -1.060180
 C         3.536934        -0.172903         0.195687
 C         3.915932         0.945341        -0.734781
 C         2.995746         0.464675        -1.789663
 O         1.655308         0.837763        -1.444642
 O         2.264584         0.152897         0.914520
 H        -0.157702        -0.117980         1.411112
 H        -0.115708         1.231837         0.107958
 H        -0.993704        -0.073521        -0.150879
 H         1.665304        -2.390908         0.223050
 H         1.128093        -2.023817        -1.537857
 H         3.875534        -1.834329        -1.334560
 H         4.174673        -0.635504         0.938942
 H         3.709908         1.946198        -0.353869
 H         4.989539         0.903273        -1.102182
 H         3.219527         0.549564        -2.836742
