19
Iteration:  3325charge 0 multiplicity 1
 C        -0.104074         0.182711         0.259079
 C         1.336859        -0.181100        -0.226852
 C         1.716518        -1.574853        -0.736019
 C         3.124065        -1.076649        -1.015236
 C         3.521659        -0.091109         0.205152
 C         4.016512         0.973813        -0.753696
 C         2.969808         0.445262        -1.724519
 O         1.616219         0.737295        -1.298131
 O         2.241275         0.162857         0.855324
 H        -0.019312        -0.209910         1.268575
 H        -0.242870         1.271208         0.109933
 H        -0.764952        -0.416950        -0.319100
 H         1.707958        -2.285927         0.134046
 H         1.013241        -1.887635        -1.584464
 H         3.906693        -1.596881        -1.664248
 H         4.232229        -0.481399         0.966093
 H         4.108067         1.998956        -0.270744
 H         4.995614         0.733764        -1.262701
 H         2.970446         0.597694        -2.848731
