19
Iteration:  4160
 C        -0.098504         0.169590         0.340606
 C         1.334044        -0.071505        -0.228251
 C         1.771279        -1.463466        -0.795958
 C         3.186809        -1.032305        -0.965828
 C         3.552784        -0.220687         0.200755
 C         3.959874         0.978577        -0.749660
 C         2.980470         0.393280        -1.795692
 O         1.592835         0.676549        -1.362809
 O         2.189661         0.163670         0.882012
 H        -0.106324        -0.338310         1.286054
 H        -0.126372         1.209381         0.607967
 H        -0.911116        -0.182489        -0.296055
 H         1.591900        -2.303134        -0.133335
 H         1.213289        -1.805029        -1.526751
 H         3.966538        -1.511688        -1.487300
 H         4.249680        -0.669137         0.922477
 H         3.931344         1.965481        -0.354100
 H         4.974979         0.789329        -0.980968
 H         3.057571         0.621257        -2.883226
