19
Iteration:  1565
 C        -0.014802         0.098516         0.426022
 C         1.295622        -0.083941        -0.190346
 C         1.637443        -1.439223        -0.828345
 C         3.116622        -1.001183        -1.039358
 C         3.593301        -0.190371         0.230016
 C         3.973295         0.971436        -0.775471
 C         3.001565         0.421654        -1.729914
 O         1.597607         0.784254        -1.346102
 O         2.269102         0.043366         0.805279
 H        -0.055711        -0.630986         1.373776
 H        -0.112768         1.183924         0.729654
 H        -0.855798        -0.156696        -0.395686
 H         1.548911        -2.222381        -0.111150
 H         0.991220        -1.532501        -1.697333
 H         3.736700        -1.748718        -1.593029
 H         4.266523        -0.494043         1.024943
 H         3.945808         2.014772        -0.421468
 H         5.007411         0.808464        -1.045398
 H         3.029951         0.474937        -2.789049
