19
Iteration:  2694
 C        -0.058583         0.208914         0.367195
 C         1.318088        -0.179046        -0.183121
 C         1.736316        -1.525042        -0.769960
 C         3.146785        -1.022711        -1.064723
 C         3.481055        -0.176975         0.233006
 C         3.916638         0.983466        -0.727038
 C         2.938145         0.302690        -1.800349
 O         1.676994         0.858190        -1.447862
 O         2.248117         0.099991         0.894469
 H        -0.026116        -0.066567         1.438941
 H        -0.258768         1.305025         0.450923
 H        -0.736858        -0.508377        -0.094589
 H         1.927984        -2.247432         0.219200
 H         1.110109        -1.979161        -1.582727
 H         3.977190        -1.649238        -1.584063
 H         4.253031        -0.439131         0.941671
 H         3.592217         1.963504        -0.369146
 H         5.040249         0.949470        -0.880720
 H         3.180929         0.507784        -2.816712
