19
Iteration:  3531
 C        -0.108865         0.111013         0.233367
 C         1.325754        -0.171488        -0.174029
 C         1.609705        -1.493430        -0.732989
 C         3.135849        -1.064355        -0.958899
 C         3.559008        -0.202911         0.211709
 C         3.952919         1.051390        -0.755362
 C         2.990495         0.378820        -1.736551
 O         1.650839         0.792593        -1.355153
 O         2.330716         0.148835         0.849396
 H        -0.371378        -0.226606         1.286133
 H        -0.212314         1.240792         0.281297
 H        -0.739941        -0.427810        -0.469691
 H         1.609038        -2.323524         0.011214
 H         1.249711        -1.783514        -1.775357
 H         3.962482        -1.615515        -1.551400
 H         4.256683        -0.631974         0.960827
 H         3.582478         1.958995        -0.265268
 H         4.920710         1.065419        -1.124492
 H         3.068368         0.634111        -2.770749
