19
Iteration:  4645
 C        -0.105122         0.130046         0.246354
 C         1.341681        -0.056009        -0.210520
 C         1.748142        -1.503429        -0.643916
 C         3.098532        -1.008195        -1.041639
 C         3.557047        -0.211418         0.293206
 C         3.909904         1.026143        -0.782200
 C         3.021046         0.357878        -1.741524
 O         1.633888         0.759592        -1.397753
 O         2.280770         0.092668         0.865618
 H        -0.537766        -0.755158         0.813219
 H        -0.353422         1.033261         0.819956
 H        -0.753134         0.316134        -0.720592
 H         1.746576        -2.168506         0.285917
 H         1.190957        -1.834180        -1.457114
 H         3.802575        -1.730516        -1.582230
 H         4.349643        -0.361250         1.044269
 H         3.471752         2.049132        -0.576395
 H         4.955432         1.018186        -1.188252
 H         3.247638         0.237483        -2.825006
