19
Iteration:  4862
 C        -0.183164         0.161184         0.283411
 C         1.260409        -0.129106        -0.173973
 C         1.785626        -1.508601        -0.683034
 C         3.196757        -1.006000        -1.022259
 C         3.516863        -0.090268         0.237940
 C         4.071625         0.961887        -0.817458
 C         2.986223         0.347531        -1.776521
 O         1.658058         0.707799        -1.307424
 O         2.195367         0.146637         0.819299
 H        -0.617540        -0.449039         1.068451
 H        -0.088146         1.099232         0.793090
 H        -0.909731         0.445353        -0.484846
 H         1.935852        -2.405067         0.005287
 H         1.128677        -1.808685        -1.610577
 H         3.833023        -1.726615        -1.486010
 H         4.093226        -0.503924         1.076091
 H         3.922696         1.984083        -0.458541
 H         5.092588         0.725090        -1.178100
 H         2.949594         0.390434        -2.955811
