19
Iteration:   695
 C        -0.078765         0.099352         0.440609
 C         1.289202        -0.029542        -0.201732
 C         1.736326        -1.549917        -0.736451
 C         3.089179        -0.947444        -1.144391
 C         3.498211        -0.278711         0.125254
 C         4.043746         0.923272        -0.749104
 C         2.902855         0.448474        -1.769537
 O         1.622705         0.920248        -1.262199
 O         2.307678         0.049960         0.781758
 H        -0.247402        -0.895916         0.999817
 H         0.000981         0.823210         1.264124
 H        -0.905204         0.047924        -0.181949
 H         1.794625        -2.175400         0.179105
 H         1.174619        -2.133618        -1.502809
 H         3.914112        -1.580958        -1.530227
 H         4.264852        -0.693211         0.771999
 H         3.913020         1.896839        -0.587278
 H         5.085348         0.651979        -0.933302
 H         2.953811         0.820072        -2.837946
