19
Iteration:  4256charge 0 multiplicity 1
 C        -0.103946         0.131470         0.325464
 C         1.274378        -0.081593        -0.236062
 C         1.757538        -1.619755        -0.825770
 C         3.164775        -1.063710        -1.000370
 C         3.560463        -0.138011         0.284332
 C         3.960964         0.939013        -0.712401
 C         2.953770         0.376117        -1.706965
 O         1.591824         0.753945        -1.343968
 O         2.287238         0.256054         0.817211
 H        -0.457165        -0.567800         1.108257
 H         0.015301         1.138162         0.815650
 H        -0.872896         0.223581        -0.537663
 H         1.618640        -2.502341        -0.293212
 H         1.295793        -1.936508        -1.780873
 H         3.916506        -1.706994        -1.500603
 H         4.236545        -0.500457         1.059732
 H         3.859908         2.047254        -0.557237
 H         4.996547         0.715679        -1.139532
 H         3.115300         0.671940        -2.747026
