19
Iteration:  1491
 C        -0.119172         0.184552         0.381622
 C         1.304053        -0.086600        -0.110551
 C         1.709659        -1.456042        -0.841236
 C         3.134898        -0.990144        -1.136802
 C         3.578179        -0.206185         0.161977
 C         3.963730         0.916932        -0.778060
 C         2.974729         0.407528        -1.763506
 O         1.625475         0.735488        -1.257098
 O         2.300786         0.084885         0.868694
 H        -0.149840        -0.719335         0.953269
 H        -0.279929         1.073275         0.927830
 H        -0.909802        -0.027659        -0.388019
 H         1.704369        -2.233176        -0.083006
 H         1.140392        -1.627015        -1.785272
 H         3.899538        -1.726788        -1.402341
 H         4.131603        -0.596996         1.013005
 H         3.868460         1.933403        -0.461858
 H         4.929470         0.990651        -1.233493
 H         2.901567         0.827041        -2.749378
