19
Iteration:  2281charge 0 multiplicity 1
 C        -0.196984         0.199714         0.265074
 C         1.379557        -0.110910        -0.167313
 C         1.773808        -1.367457        -0.703362
 C         3.197412        -0.990920        -1.067823
 C         3.665169        -0.234369         0.237500
 C         3.949263         0.914598        -0.698151
 C         2.877590         0.341684        -1.686366
 O         1.512190         0.712010        -1.390156
 O         2.315740         0.098333         0.819488
 H        -0.410024        -0.235528         1.227849
 H        -0.211222         1.275267         0.397918
 H        -0.708598        -0.191051        -0.478768
 H         1.551999        -2.287723        -0.093285
 H         1.085534        -1.643029        -1.578534
 H         3.758020        -1.713241        -1.623254
 H         4.421978        -0.467323         1.010382
 H         4.094566         1.975983        -0.273594
 H         4.854527         0.979566        -1.312713
 H         3.171385         0.570606        -2.763159
