19
Iteration:  3376
 C        -0.088238         0.184522         0.312299
 C         1.356726        -0.192032        -0.253925
 C         1.703970        -1.447751        -0.754427
 C         3.099849        -1.071559        -1.018309
 C         3.601696        -0.128543         0.264279
 C         3.907519         1.031373        -0.667634
 C         2.978382         0.364623        -1.711351
 O         1.586686         0.690163        -1.387797
 O         2.316166         0.156782         0.812934
 H        -0.226514        -0.608878         1.068385
 H         0.030706         1.223648         0.545283
 H        -0.749301        -0.077223        -0.545263
 H         1.523326        -2.274267        -0.061220
 H         0.975118        -1.614547        -1.594599
 H         3.722639        -1.807307        -1.427654
 H         4.394110        -0.476773         0.927865
 H         3.709071         2.057381        -0.486080
 H         4.912299         0.962938        -1.003994
 H         3.151169         0.437062        -2.740487
