19
Iteration:  2171charge 0 multiplicity 1
 C        -0.105874         0.258483         0.262444
 C         1.301121        -0.110450        -0.259260
 C         1.797129        -1.568704        -0.651626
 C         3.186787        -1.002516        -1.000114
 C         3.529747        -0.275733         0.158389
 C         3.958331         0.964998        -0.747502
 C         2.921081         0.436661        -1.754766
 O         1.583728         0.833605        -1.318007
 O         2.303900         0.045918         0.830543
 H        -0.370662        -0.510863         1.054818
 H        -0.175530         1.282257         0.724989
 H        -0.935402         0.239283        -0.350379
 H         1.901043        -2.290935         0.274002
 H         1.234997        -2.082292        -1.538686
 H         3.923801        -1.626463        -1.476984
 H         4.221959        -0.793263         0.857447
 H         3.590173         1.984817        -0.277075
 H         4.999268         0.836449        -1.173053
 H         2.956014         0.717491        -2.853467
