19
Iteration:   427
 C        -0.145421         0.037092         0.358020
 C         1.319589        -0.037358        -0.173452
 C         1.651069        -1.334667        -0.796271
 C         3.148076        -1.032142        -1.048417
 C         3.689330        -0.285871         0.104331
 C         4.017045         0.944788        -0.743918
 C         2.860980         0.435972        -1.654690
 O         1.478296         0.828509        -1.307805
 O         2.483441         0.032882         0.855987
 H        -0.379647        -0.482132         1.320318
 H        -0.479654         1.095892         0.470531
 H        -0.857058        -0.354141        -0.427620
 H         1.495544        -2.132978        -0.063417
 H         1.122123        -1.492601        -1.732825
 H         3.694371        -1.530396        -1.867185
 H         4.495457        -0.690269         0.787465
 H         3.747368         1.919914        -0.234195
 H         4.953909         0.865864        -1.187036
 H         2.944748         0.546326        -2.843502
