19
Iteration:  2215
 C        -0.072277         0.155496         0.332903
 C         1.290431        -0.060087        -0.151672
 C         1.691059        -1.461856        -0.803900
 C         3.108820        -0.987325        -0.995207
 C         3.604685        -0.194230         0.206364
 C         3.956283         0.958474        -0.758091
 C         2.993750         0.406527        -1.782525
 O         1.592076         0.707126        -1.396516
 O         2.314097         0.092905         0.895523
 H        -0.477573        -0.692380         0.896837
 H        -0.250339         1.079974         0.924357
 H        -0.758280         0.212835        -0.411636
 H         1.434788        -2.312846        -0.081013
 H         1.114908        -1.750197        -1.763720
 H         3.962507        -1.633954        -1.086030
 H         4.274534        -0.634224         0.970816
 H         3.844140         2.074465        -0.409482
 H         5.012884         0.825184        -1.155995
 H         3.079247         0.487877        -2.908066
