19
Iteration:   210
 C        -0.006208         0.185096         0.388259
 C         1.329202        -0.111287        -0.173875
 C         1.695986        -1.504246        -0.951814
 C         3.112672        -1.058322        -1.084160
 C         3.592384        -0.273269         0.101523
 C         3.958874         1.020725        -0.747057
 C         2.867280         0.398358        -1.665840
 O         1.558570         0.792805        -1.137205
 O         2.357961         0.102388         0.792851
 H        -0.144965        -0.260632         1.412281
 H        -0.045406         1.236382         0.578151
 H        -0.776195        -0.174237        -0.201835
 H         1.496476        -2.475946        -0.484750
 H         1.213382        -1.462886        -1.906742
 H         3.947399        -1.733222        -1.442999
 H         4.246247        -0.641529         0.940467
 H         3.721127         2.050210        -0.182771
 H         4.893296         1.105564        -1.326750
 H         2.789912         0.408386        -2.740517
