19
Iteration:   869charge 0 multiplicity 1
 C        -0.093276         0.184647         0.384491
 C         1.272696        -0.139984        -0.265878
 C         1.728544        -1.539753        -0.828586
 C         3.156327        -1.028614        -1.098287
 C         3.700889        -0.227937         0.162999
 C         3.952568         0.929576        -0.776636
 C         2.839348         0.427271        -1.720722
 O         1.521787         0.835513        -1.186254
 O         2.376903         0.072860         0.849129
 H        -0.368920        -0.557702         1.131660
 H         0.038914         1.201461         0.820189
 H        -0.882707         0.447708        -0.211694
 H         1.582611        -2.429239        -0.181695
 H         1.340280        -1.600616        -1.836158
 H         3.955410        -1.631205        -1.527484
 H         4.387666        -0.713036         0.845119
 H         3.773511         1.878681        -0.331821
 H         5.010338         1.158777        -1.274606
 H         2.705048         0.705896        -2.788670
