19
Iteration:   957
 C        -0.076051         0.085356         0.364853
 C         1.340350        -0.101884        -0.100101
 C         1.713606        -1.438514        -0.844628
 C         3.084566        -1.008877        -1.199739
 C         3.564475        -0.213236         0.152998
 C         3.937699         0.929910        -0.782434
 C         2.877480         0.473425        -1.743395
 O         1.599984         0.733465        -1.264477
 O         2.371955         0.141335         0.980732
 H        -0.408353        -0.585644         1.204472
 H        -0.030045         1.197404         0.544794
 H        -0.752489        -0.076946        -0.483407
 H         1.766582        -2.411972        -0.290195
 H         1.058165        -1.388043        -1.686245
 H         3.798365        -1.763178        -1.517535
 H         4.343649        -0.703819         0.688699
 H         4.005144         1.935804        -0.373400
 H         5.004236         0.654890        -1.346680
 H         2.964188         0.693614        -2.825872
