19
Iteration:  3844charge 0 multiplicity 1
 C        -0.139763         0.148670         0.332818
 C         1.278011        -0.163420        -0.213683
 C         1.758689        -1.544939        -0.745880
 C         3.192819        -1.020531        -1.007608
 C         3.530077        -0.155025         0.250140
 C         4.033961         0.990081        -0.753967
 C         2.912894         0.400290        -1.692191
 O         1.632838         0.809485        -1.352458
 O         2.249112         0.113356         0.776711
 H        -0.342411        -0.691683         0.928338
 H        -0.328102         1.130774         0.766063
 H        -0.797890         0.133418        -0.482474
 H         1.957832        -2.182783         0.133435
 H         1.048706        -1.942920        -1.492979
 H         3.908032        -1.600312        -1.647232
 H         4.241637        -0.529492         0.979325
 H         3.891990         2.043950        -0.387061
 H         5.004848         0.842334        -1.283476
 H         3.108942         0.432919        -2.802146
