19
Iteration:  2389charge 0 multiplicity 1
 C        -0.131193         0.108020         0.298349
 C         1.247996        -0.064449        -0.220958
 C         1.762948        -1.549438        -0.629501
 C         3.109266        -0.985335        -1.135385
 C         3.498712        -0.232334         0.186806
 C         4.017282         0.933410        -0.753805
 C         2.963867         0.410206        -1.778283
 O         1.648879         0.814903        -1.391615
 O         2.303057         0.153816         0.919989
 H        -0.373444        -0.767514         1.041882
 H        -0.261509         1.093782         0.942699
 H        -0.909258         0.149912        -0.515316
 H         1.934180        -2.051977         0.369369
 H         1.157131        -2.174856        -1.399950
 H         3.902214        -1.646113        -1.472180
 H         4.361759        -0.591346         0.780361
 H         3.693796         1.942270        -0.412266
 H         5.052637         0.800165        -1.000363
 H         3.190666         0.571264        -2.863316
