19
Iteration:  4454
 C        -0.083157         0.177928         0.274338
 C         1.300316        -0.166577        -0.232946
 C         1.698288        -1.482392        -0.713520
 C         3.136976        -1.017687        -0.987509
 C         3.504442        -0.128749         0.186500
 C         3.992837         1.019734        -0.758381
 C         2.973305         0.354222        -1.740830
 O         1.676118         0.661912        -1.324196
 O         2.253001         0.183443         0.875612
 H        -0.458203        -0.753022         0.817112
 H        -0.171646         1.152188         0.831088
 H        -0.684161         0.211628        -0.666200
 H         1.716114        -2.161895         0.055778
 H         1.202093        -1.744522        -1.674014
 H         3.785026        -1.787166        -1.487325
 H         4.252400        -0.552509         0.914919
 H         3.780931         1.994063        -0.285941
 H         4.981939         0.721361        -1.251016
 H         3.060851         0.578337        -2.869309
