19
Iteration:  3007charge 0 multiplicity 1
 C        -0.104183         0.117782         0.302219
 C         1.316459        -0.115576        -0.205790
 C         1.751230        -1.443078        -0.735485
 C         3.203758        -1.013525        -0.938791
 C         3.568020        -0.210396         0.218222
 C         4.003994         0.946572        -0.781817
 C         2.896516         0.381514        -1.725975
 O         1.587767         0.749498        -1.343905
 O         2.256140         0.156595         0.801969
 H        -0.667732        -0.637298         0.874041
 H        -0.180778         0.973782         1.014189
 H        -0.714059         0.395045        -0.578065
 H         1.547924        -2.112334         0.121488
 H         1.265230        -1.766682        -1.662038
 H         3.966211        -1.694909        -1.522416
 H         4.286861        -0.790559         0.938235
 H         3.773625         1.984419        -0.535302
 H         5.059211         0.860993        -1.122830
 H         3.137470         0.592302        -2.910743
