19
Iteration:  1850charge 0 multiplicity 1
 C        -0.129850         0.119963         0.276034
 C         1.290106        -0.070155        -0.074163
 C         1.728410        -1.508952        -0.839648
 C         3.088451        -1.025238        -1.137932
 C         3.579358        -0.120176         0.239092
 C         3.974373         0.950637        -0.814177
 C         2.973955         0.309745        -1.780949
 O         1.626800         0.749523        -1.249147
 O         2.348253         0.166547         0.951606
 H        -0.444269        -0.624135         0.920380
 H        -0.423673         1.034539         0.744514
 H        -0.745952         0.069606        -0.605248
 H         1.550088        -2.463157        -0.267985
 H         1.000003        -1.324435        -1.702348
 H         3.858457        -1.660765        -1.469786
 H         4.266168        -0.626760         0.917878
 H         3.895197         2.060790        -0.649534
 H         5.058972         0.734325        -1.187713
 H         2.938150         0.535372        -2.813257
