19
Iteration:   480charge 0 multiplicity 1
 C        -0.054776         0.181496         0.497736
 C         1.335350        -0.078769        -0.213901
 C         1.710638        -1.511798        -0.805131
 C         3.106305        -0.988822        -1.149015
 C         3.565070        -0.231703         0.184356
 C         3.947355         1.054460        -0.788913
 C         2.957135         0.433043        -1.775354
 O         1.645228         0.844626        -1.301690
 O         2.255525        -0.070043         0.848637
 H        -0.126066        -0.745038         1.151754
 H        -0.173294         1.073784         1.135697
 H        -1.003852         0.171455        -0.029418
 H         1.987926        -2.152538         0.035598
 H         1.114323        -1.902085        -1.612677
 H         3.735081        -1.771958        -1.667712
 H         4.248865        -0.694687         0.865811
 H         3.630050         2.128151        -0.567242
 H         4.953386         0.854517        -1.055045
 H         3.024071         0.611628        -2.872779
