19
Iteration:   987
 C        -0.058981         0.112221         0.399877
 C         1.269933        -0.082975        -0.260361
 C         1.712826        -1.486446        -0.685760
 C         3.135315        -1.052372        -1.089919
 C         3.617342        -0.236767         0.051904
 C         3.980957         0.995649        -0.722482
 C         2.881888         0.497854        -1.717575
 O         1.613033         0.834286        -1.234011
 O         2.292424         0.007572         0.759067
 H         0.022172        -0.440254         1.469552
 H        -0.025000         1.271189         0.426250
 H        -0.873572        -0.181064        -0.217475
 H         1.572814        -2.182382         0.186568
 H         1.171260        -1.798193        -1.585440
 H         3.715424        -1.862278        -1.531316
 H         4.364408        -0.630817         0.786004
 H         3.860363         1.862305        -0.159656
 H         4.944549         1.053043        -1.193325
 H         2.894631         0.733409        -2.758355
