19
Iteration:  1231
 C        -0.095351         0.081694         0.435729
 C         1.292433        -0.060193        -0.269588
 C         1.721940        -1.413132        -0.776981
 C         3.099636        -0.985660        -1.105793
 C         3.590012        -0.271955         0.208050
 C         3.987557         0.946740        -0.739001
 C         2.998223         0.368589        -1.770742
 O         1.544408         0.839055        -1.248087
 O         2.353127         0.087365         0.789943
 H        -0.071388        -0.576443         1.306042
 H        -0.089168         1.140269         0.725944
 H        -1.042013        -0.124558        -0.303261
 H         1.668045        -2.222168        -0.007042
 H         1.142879        -1.659547        -1.714463
 H         3.760333        -1.736767        -1.570581
 H         4.093412        -0.817127         1.010559
 H         3.700107         1.855157        -0.276511
 H         4.980458         1.057498        -1.185969
 H         2.972712         0.532538        -2.899989
