19
Iteration:  3688
 C        -0.110688         0.096068         0.303028
 C         1.302708        -0.115061        -0.239342
 C         1.738551        -1.423240        -0.695819
 C         3.142866        -1.051446        -1.058824
 C         3.508171        -0.189486         0.168712
 C         4.009843         0.984023        -0.747696
 C         3.028284         0.448661        -1.686133
 O         1.619752         0.711159        -1.342227
 O         2.244366         0.158229         0.817233
 H        -0.189721        -0.420376         1.258544
 H        -0.405161         1.084361         0.587502
 H        -0.901121        -0.390241        -0.282768
 H         1.521031        -2.270682         0.066204
 H         1.189880        -1.910140        -1.578298
 H         3.845935        -1.812863        -1.377564
 H         4.300526        -0.429752         0.964325
 H         3.820953         2.010811        -0.367885
 H         5.110931         0.947143        -1.043942
 H         3.051270         0.551669        -2.822043
