19
Iteration:  2568
 C        -0.045401         0.208646         0.311263
 C         1.346990        -0.184001        -0.215559
 C         1.680134        -1.534880        -0.707898
 C         3.098663        -0.999651        -1.146810
 C         3.553693        -0.166669         0.285795
 C         3.984769         1.009556        -0.682908
 C         2.952695         0.366057        -1.663220
 O         1.548727         0.655883        -1.391973
 O         2.335900         0.219266         0.816661
 H        -0.388484        -0.582293         1.007808
 H         0.048191         1.193451         0.767135
 H        -0.807492         0.258414        -0.532374
 H         1.637712        -2.466561        -0.048296
 H         0.951713        -1.820465        -1.531549
 H         3.776613        -1.671982        -1.749859
 H         4.321074        -0.602698         1.017092
 H         3.806001         2.062439        -0.393125
 H         4.970478         0.999944        -1.191247
 H         3.277420         0.499511        -2.772165
