19
Iteration:  2241
 C        -0.030962         0.078624         0.314707
 C         1.249604        -0.072794        -0.244063
 C         1.722009        -1.469926        -0.701999
 C         3.123192        -1.066558        -1.078748
 C         3.561593        -0.174915         0.220074
 C         3.964384         0.970974        -0.767981
 C         2.992822         0.329053        -1.733688
 O         1.684153         0.838123        -1.246218
 O         2.210129         0.155522         0.740471
 H        -0.074470        -0.702281         1.082425
 H        -0.046940         1.036210         0.851563
 H        -1.139661         0.057279        -0.167785
 H         1.657585        -2.182028         0.117243
 H         1.114742        -1.787394        -1.520774
 H         3.869150        -1.774610        -1.512565
 H         4.113506        -0.516437         1.095744
 H         3.751799         2.035415        -0.624992
 H         5.070006         0.728672        -0.948941
 H         2.992012         0.340441        -2.848867
