19
Iteration:  1593
 C        -0.122322         0.061521         0.382306
 C         1.286183        -0.082395        -0.230546
 C         1.746110        -1.542999        -0.802247
 C         3.116758        -1.019823        -1.081271
 C         3.536820        -0.264011         0.191054
 C         4.000816         0.923469        -0.804463
 C         2.998134         0.414390        -1.746935
 O         1.609776         0.921063        -1.230258
 O         2.282773         0.173081         0.813546
 H        -0.087819        -0.609570         1.163257
 H        -0.138543         1.047428         0.793819
 H        -0.829120        -0.110296        -0.366997
 H         1.882815        -2.184637         0.120034
 H         1.017007        -1.915470        -1.534650
 H         3.840955        -1.705442        -1.512107
 H         4.149282        -0.732760         1.008135
 H         3.811904         1.926160        -0.396097
 H         5.063768         0.658334        -1.105029
 H         2.864990         0.509162        -2.864181
