19
Iteration:  1856charge 0 multiplicity 1
 C        -0.095040         0.136495         0.292266
 C         1.326348        -0.074373        -0.155190
 C         1.687896        -1.461863        -0.790979
 C         3.110900        -0.992662        -1.083635
 C         3.573057        -0.158960         0.274286
 C         3.996759         0.945217        -0.829524
 C         2.957319         0.307244        -1.790155
 O         1.608042         0.794387        -1.228610
 O         2.335905         0.117673         0.891753
 H        -0.459163        -0.788141         0.957977
 H        -0.505826         1.107523         0.750688
 H        -0.713371        -0.068211        -0.664701
 H         1.662640        -2.383021        -0.251433
 H         1.097067        -1.592728        -1.666259
 H         3.918119        -1.636212        -1.590683
 H         4.318510        -0.468084         1.043140
 H         3.771073         1.966356        -0.560407
 H         4.946237         0.731258        -1.154619
 H         2.786792         0.390806        -2.934385
