19
Iteration:  4284charge 0 multiplicity 1
 C        -0.059703         0.126554         0.309440
 C         1.288629        -0.046325        -0.220951
 C         1.699002        -1.471444        -0.703766
 C         3.153417        -0.981014        -0.993748
 C         3.510018        -0.199393         0.210504
 C         3.994227         1.006912        -0.731026
 C         3.008541         0.397039        -1.748404
 O         1.645011         0.710229        -1.382773
 O         2.210337         0.090793         0.825864
 H        -0.160480        -0.398733         1.243275
 H        -0.031582         1.187639         0.557924
 H        -0.746359        -0.164918        -0.430929
 H         1.820832        -2.309220         0.198426
 H         1.180444        -1.923275        -1.625208
 H         3.707781        -1.782102        -1.459121
 H         4.162113        -0.632907         0.979612
 H         3.752132         2.058211        -0.578951
 H         4.975849         0.773871        -1.086455
 H         3.128073         0.649752        -2.818821
