19
Iteration:  4550
 C        -0.062309         0.114180         0.201525
 C         1.290342        -0.089611        -0.228771
 C         1.653039        -1.551598        -0.695608
 C         3.176124        -1.075526        -0.999733
 C         3.550020        -0.178954         0.257831
 C         3.938550         1.034663        -0.733650
 C         2.937881         0.373958        -1.774633
 O         1.613836         0.796306        -1.337481
 O         2.364648         0.164621         0.881151
 H        -0.297563        -0.206928         1.194081
 H        -0.197750         1.141285         0.040170
 H        -0.697895        -0.365129        -0.505083
 H         1.445148        -2.401925         0.063854
 H         1.354660        -1.741333        -1.858959
 H         3.957814        -1.783202        -1.395026
 H         4.182875        -0.453132         1.110711
 H         3.574090         1.907762        -0.255764
 H         4.956540         0.900264        -1.016926
 H         2.872877         0.367817        -2.860774
