19
Iteration:  3746
 C        -0.112543         0.193655         0.272468
 C         1.269209        -0.259336        -0.092265
 C         1.703050        -1.587151        -0.742407
 C         3.174936        -1.020814        -1.102417
 C         3.548578        -0.132105         0.241333
 C         4.056214         1.021841        -0.727923
 C         2.925520         0.491813        -1.749141
 O         1.604148         0.725219        -1.393655
 O         2.271068         0.127932         0.853492
 H        -0.425550        -0.241209         1.232933
 H        -0.136888         1.290774         0.298421
 H        -0.761044        -0.132753        -0.499602
 H         1.460202        -2.345783        -0.048329
 H         1.189132        -1.611407        -1.660586
 H         4.067838        -1.681886        -1.160803
 H         4.305847        -0.456326         0.914721
 H         3.900026         2.025132        -0.219605
 H         5.131211         0.791357        -1.009570
 H         3.090232         0.475642        -2.866715
