19
Iteration:   238
 C        -0.044366         0.247245         0.450393
 C         1.298807        -0.126011        -0.173896
 C         1.746776        -1.548196        -0.760583
 C         3.056678        -0.960027        -1.231709
 C         3.578139        -0.224378         0.103787
 C         3.974539         0.990218        -0.684118
 C         2.908805         0.549945        -1.703456
 O         1.584966         0.759388        -1.393006
 O         2.311882        -0.056511         0.914708
 H         0.066914        -0.222545         1.447862
 H        -0.111826         1.316024         0.762516
 H        -0.969920        -0.197375        -0.035642
 H         1.857401        -2.382024        -0.063942
 H         1.151665        -1.902069        -1.648042
 H         3.744073        -1.586017        -1.790892
 H         4.286346        -0.583651         0.810472
 H         4.049414         1.945508        -0.297020
 H         4.886523         0.653179        -1.191425
 H         3.060236         0.825700        -2.812609
