19
Iteration:  3110charge 0 multiplicity 1
 C        -0.068606         0.197545         0.292403
 C         1.287989        -0.053320        -0.299515
 C         1.702986        -1.522654        -0.747657
 C         3.142149        -1.122188        -1.095240
 C         3.556390        -0.199193         0.250262
 C         3.911190         0.993565        -0.712133
 C         2.976052         0.421184        -1.748421
 O         1.610769         0.711466        -1.322787
 O         2.341811         0.150694         0.890989
 H        -0.231827        -0.164494         1.346596
 H        -0.490970         1.237212         0.166660
 H        -0.864025        -0.365751        -0.210534
 H         1.708326        -2.202370         0.106240
 H         1.138872        -1.961986        -1.598708
 H         3.894879        -1.751907        -1.538847
 H         4.383004        -0.325024         0.947981
 H         3.682276         1.942963        -0.208866
 H         4.943759         1.029860        -0.999043
 H         3.105699         0.448201        -2.844777
