19
Iteration:  2947charge 0 multiplicity 1
 C        -0.145284         0.193200         0.293071
 C         1.342272        -0.070158        -0.215220
 C         1.744907        -1.510776        -0.788225
 C         3.142242        -1.075806        -1.028827
 C         3.633309        -0.168279         0.254821
 C         3.912380         0.976984        -0.672036
 C         2.925857         0.322155        -1.704999
 O         1.534196         0.756729        -1.390921
 O         2.389245         0.141220         0.843316
 H        -0.313423        -0.379128         1.221087
 H        -0.266847         1.245564         0.435266
 H        -0.818173        -0.209517        -0.520581
 H         1.549953        -2.362428        -0.026157
 H         1.145797        -1.744164        -1.743246
 H         3.857233        -1.421972        -1.698398
 H         4.274878        -0.620740         0.965916
 H         3.594676         2.021235        -0.412522
 H         5.007742         0.967430        -0.844652
 H         3.134269         0.389782        -2.741705
