19
Iteration:  3362charge 0 multiplicity 1
 C        -0.031786         0.161849         0.292765
 C         1.277283        -0.034005        -0.228697
 C         1.663786        -1.552695        -0.753295
 C         3.170916        -1.054559        -0.991560
 C         3.570705        -0.165750         0.204976
 C         3.943037         1.042526        -0.717454
 C         2.982558         0.350328        -1.718617
 O         1.610208         0.708837        -1.429193
 O         2.308652         0.120872         0.881601
 H        -0.221801        -0.259958         1.259967
 H        -0.339896         1.145750         0.643864
 H        -0.931569        -0.096454        -0.309346
 H         1.485989        -2.348509        -0.070264
 H         1.312923        -1.845503        -1.695811
 H         3.933911        -1.646219        -1.467254
 H         4.165885        -0.528901         1.043590
 H         3.601986         1.933461        -0.215519
 H         4.970894         1.091647        -1.083412
 H         3.012460         0.566189        -2.869636
