19
Iteration:   634charge 0 multiplicity 1
 C        -0.024372         0.194098         0.383787
 C         1.345987        -0.168215        -0.204894
 C         1.722983        -1.504567        -0.766179
 C         3.125913        -1.049090        -1.192178
 C         3.603340        -0.273733         0.127722
 C         3.950732         0.984379        -0.748422
 C         2.886908         0.493931        -1.731487
 O         1.536257         0.860795        -1.216733
 O         2.314836        -0.018883         0.843157
 H        -0.200260        -0.263964         1.309365
 H         0.070907         1.275666         0.576275
 H        -0.944208         0.204232        -0.292682
 H         1.786802        -2.227402         0.066956
 H         1.057044        -1.850188        -1.529841
 H         3.882003        -1.678363        -1.680091
 H         4.273503        -0.657285         0.917837
 H         3.719138         2.120319        -0.437520
 H         5.002293         0.899477        -1.090410
 H         3.002277         0.840054        -2.747160
