19
Iteration:  2460
 C        -0.039772         0.177399         0.318429
 C         1.304119        -0.075202        -0.304052
 C         1.713026        -1.502795        -0.647768
 C         3.133287        -1.049100        -0.981321
 C         3.503331        -0.193517         0.180723
 C         3.968976         1.001558        -0.710168
 C         2.935489         0.429185        -1.731700
 O         1.598734         0.732997        -1.371240
 O         2.304352         0.068014         0.771897
 H        -0.117734        -0.250364         1.288499
 H        -0.218437         1.116827         0.699191
 H        -0.892511        -0.079104        -0.337886
 H         1.754680        -1.989129         0.354499
 H         1.220068        -1.828350        -1.544235
 H         3.886448        -1.681329        -1.482003
 H         4.312975        -0.725075         0.754060
 H         3.747182         1.991855        -0.272438
 H         5.019940         0.768636        -1.062394
 H         3.220194         0.668399        -2.768935
