19
Iteration:   128
 C        -0.077869         0.156091         0.448765
 C         1.293382        -0.085294        -0.154074
 C         1.707424        -1.461056        -0.840746
 C         3.143609        -0.996707        -1.084412
 C         3.657854        -0.260013         0.112047
 C         4.000542         1.010371        -0.744832
 C         2.898127         0.424339        -1.722112
 O         1.538997         0.740380        -1.248267
 O         2.340878         0.059554         0.828806
 H        -0.411143        -0.764881         0.929848
 H        -0.173731         1.058710         1.144789
 H        -0.757673         0.382813        -0.494843
 H         1.275138        -2.365151        -0.356981
 H         1.285095        -1.513652        -1.895900
 H         3.790725        -1.592103        -1.694878
 H         4.382260        -0.648915         0.824729
 H         3.700044         1.925006        -0.351029
 H         5.080440         1.008532        -1.132427
 H         2.883531         0.516676        -2.895367
