19
Iteration:   754charge 0 multiplicity 1
 C        -0.036371         0.124916         0.423292
 C         1.301164        -0.133584        -0.141607
 C         1.711636        -1.497488        -0.825049
 C         3.109814        -1.062698        -1.123254
 C         3.656185        -0.252936         0.124900
 C         3.906681         1.000027        -0.754202
 C         2.881788         0.413096        -1.763628
 O         1.607080         0.943347        -1.285415
 O         2.326703        -0.012608         0.881334
 H        -0.195339        -0.378513         1.321341
 H        -0.043471         1.200086         0.552937
 H        -0.825781         0.144534        -0.380937
 H         1.630731        -2.236787        -0.018960
 H         1.227405        -1.764175        -1.762685
 H         3.747581        -1.810733        -1.595654
 H         4.439595        -0.599787         0.812460
 H         3.486071         2.007377        -0.407410
 H         4.940028         1.066527        -1.046911
 H         2.890465         0.642494        -2.756408
