19
Iteration:  4748
 C        -0.181636         0.158171         0.266286
 C         1.303324        -0.116682        -0.209113
 C         1.733205        -1.438617        -0.691239
 C         3.192888        -1.002071        -0.993229
 C         3.544848        -0.138256         0.214671
 C         3.955153         0.950543        -0.747788
 C         2.987909         0.338624        -1.783172
 O         1.624322         0.692497        -1.334556
 O         2.285064         0.154478         0.855602
 H        -0.160926        -0.121179         1.303191
 H        -0.342078         1.250019         0.302013
 H        -0.811528        -0.378063        -0.378220
 H         1.754988        -2.381186        -0.125293
 H         1.331984        -1.801294        -1.832547
 H         3.791550        -1.820609        -1.400546
 H         4.307574        -0.513521         0.897248
 H         3.707647         2.019766        -0.605980
 H         5.037634         0.874841        -0.842984
 H         3.010568         0.560769        -2.792471
