19
Iteration:   949
 C        -0.060145         0.111016         0.367199
 C         1.362525        -0.167290        -0.136183
 C         1.693131        -1.407081        -0.809926
 C         3.113643        -1.059313        -1.122795
 C         3.583933        -0.212966         0.087128
 C         3.984327         0.944594        -0.808622
 C         2.895855         0.518376        -1.772632
 O         1.595443         0.714786        -1.189812
 O         2.319148         0.146058         0.919365
 H        -0.369721        -0.455375         1.136574
 H        -0.241972         1.024535         0.824739
 H        -0.783447        -0.032496        -0.487567
 H         1.476045        -2.358701        -0.344354
 H         1.102798        -1.478867        -1.744408
 H         3.805557        -1.696104        -1.678351
 H         4.320092        -0.570433         0.803902
 H         3.945297         1.941245        -0.263474
 H         5.002669         0.651073        -1.126726
 H         2.839705         0.734968        -2.899839
