19
Iteration:  3216
 C        -0.047636         0.166586         0.228787
 C         1.285810        -0.158508        -0.163986
 C         1.692708        -1.477634        -0.696761
 C         3.151840        -1.008338        -1.053463
 C         3.623437        -0.124417         0.234430
 C         3.953468         1.004258        -0.672968
 C         2.903600         0.275774        -1.763671
 O         1.599443         0.720622        -1.343679
 O         2.261539         0.159358         0.802531
 H        -0.511627        -0.575055         0.851740
 H         0.179485         0.981138         0.857648
 H        -0.646642         0.483089        -0.590128
 H         1.869238        -2.247616         0.029089
 H         1.130410        -1.925373        -1.494960
 H         3.895724        -1.599345        -1.485370
 H         4.340107        -0.646011         0.836008
 H         3.694659         1.992204        -0.235641
 H         4.929575         1.076300        -1.162755
 H         3.186720         0.507973        -2.760739
