19
Iteration:  1546
 C        -0.153877         0.214766         0.423244
 C         1.332427        -0.146722        -0.146208
 C         1.745112        -1.489957        -0.845861
 C         3.111713        -1.011186        -1.176347
 C         3.554249        -0.240671         0.142793
 C         3.974349         0.994552        -0.665508
 C         2.944362         0.359517        -1.761997
 O         1.592433         0.732643        -1.350550
 O         2.362753         0.143864         0.926842
 H        -0.288923        -0.356749         1.329239
 H        -0.108980         1.291713         0.630313
 H        -0.779792        -0.018793        -0.505847
 H         1.656908        -2.399871        -0.237161
 H         1.188419        -1.548775        -1.818144
 H         3.904214        -1.668245        -1.505438
 H         4.168194        -0.777460         0.895825
 H         3.577157         1.911240        -0.240474
 H         4.971471         0.910642        -1.059727
 H         2.937729         0.728035        -2.812760
