19
Iteration:  4889charge 0 multiplicity 1
 C        -0.016703         0.150142         0.158339
 C         1.354015        -0.019413        -0.255991
 C         1.685120        -1.530988        -0.673207
 C         3.109814        -1.096574        -0.990350
 C         3.598469        -0.107740         0.260190
 C         3.903324         0.985563        -0.750909
 C         2.934449         0.332065        -1.770872
 O         1.604545         0.769189        -1.362763
 O         2.318253         0.111140         0.933706
 H        -0.265377        -0.402942         1.095427
 H        -0.326628         1.193440         0.518343
 H        -0.675482        -0.094471        -0.690343
 H         1.631349        -2.319990         0.023566
 H         1.086253        -1.850336        -1.490185
 H         3.717896        -1.866265        -1.569207
 H         4.274205        -0.467954         1.086646
 H         3.641414         1.984913        -0.320085
 H         4.923046         1.025548        -1.160227
 H         3.017052         0.418800        -2.817594
