19
Iteration:  3565
 C        -0.132941         0.111567         0.319992
 C         1.259357        -0.115372        -0.159465
 C         1.771086        -1.457366        -0.725240
 C         3.191063        -0.983075        -1.018195
 C         3.495246        -0.212025         0.201745
 C         3.985601         0.938745        -0.760922
 C         2.969609         0.409710        -1.770320
 O         1.661767         0.757755        -1.346156
 O         2.232615         0.146950         0.823400
 H        -0.323272        -0.534024         1.188707
 H        -0.293780         1.195316         0.498415
 H        -0.860981        -0.074316        -0.461773
 H         1.738090        -2.292630         0.074642
 H         1.299199        -1.964415        -1.648876
 H         4.013555        -1.605608        -1.463689
 H         4.128141        -0.503652         1.056696
 H         4.028013         1.978670        -0.469581
 H         4.971191         0.751163        -1.109569
 H         3.125770         0.531992        -2.816798
