19
Iteration:  3664charge 0 multiplicity 1
 C        -0.075258         0.144873         0.277477
 C         1.347224        -0.148716        -0.193875
 C         1.811269        -1.530699        -0.808504
 C         3.129643        -1.039752        -0.975502
 C         3.611168        -0.140987         0.279174
 C         3.975860         0.950754        -0.757463
 C         2.909010         0.417309        -1.746695
 O         1.513664         0.757924        -1.355732
 O         2.269069         0.189777         0.866086
 H        -0.566036        -0.432179         1.043237
 H        -0.212075         1.195335         0.584317
 H        -0.739671        -0.026225        -0.653690
 H         1.601005        -2.463586        -0.153906
 H         1.118902        -1.859671        -1.678913
 H         3.888183        -1.605768        -1.465081
 H         4.421120        -0.574348         0.972548
 H         4.024012         1.934313        -0.339155
 H         5.023783         0.785034        -1.015013
 H         3.014460         0.316625        -2.817052
