19
Iteration:  4756charge 0 multiplicity 1
 C        -0.146093         0.184086         0.242302
 C         1.255397        -0.148903        -0.192283
 C         1.719580        -1.529044        -0.735037
 C         3.154564        -0.990901        -1.032647
 C         3.559048        -0.106464         0.285758
 C         3.978864         0.981947        -0.764616
 C         2.951558         0.374836        -1.736996
 O         1.627324         0.695389        -1.369836
 O         2.339188         0.141258         0.900590
 H        -0.321569        -0.279067         1.241205
 H        -0.303096         1.293744         0.192526
 H        -0.829848        -0.379847        -0.435308
 H         1.605681        -2.418541        -0.135919
 H         1.241924        -1.661646        -1.720904
 H         3.891535        -1.756856        -1.229141
 H         4.293877        -0.383621         1.040092
 H         3.898715         2.062667        -0.754236
 H         5.013354         0.725417        -1.147441
 H         2.978099         0.486252        -2.800465
