19
Iteration:   384
 C        -0.003561         0.193013         0.449835
 C         1.265655        -0.176525        -0.241249
 C         1.793674        -1.519271        -0.868419
 C         3.145508        -0.987761        -1.162777
 C         3.542746        -0.192043         0.179299
 C         3.974086         0.964587        -0.763050
 C         2.831458         0.406629        -1.765403
 O         1.577358         0.855128        -1.170621
 O         2.284512         0.013846         0.826705
 H        -0.063891        -0.334884         1.390610
 H         0.161248         1.252453         0.639619
 H        -0.938872         0.188369        -0.083819
 H         1.781042        -2.179988        -0.004649
 H         1.333812        -1.830089        -1.762449
 H         3.908361        -1.677777        -1.512418
 H         4.331094        -0.617787         0.861816
 H         3.926501         2.041385        -0.424429
 H         4.933173         0.686912        -1.095783
 H         2.843895         0.563447        -2.908567
