19
Iteration:  3245charge 0 multiplicity 1
 C        -0.145554         0.223254         0.341441
 C         1.265230        -0.076405        -0.209683
 C         1.772853        -1.538744        -0.778946
 C         3.208770        -1.129095        -0.991753
 C         3.584423        -0.093330         0.286807
 C         3.949989         0.967047        -0.723649
 C         2.936252         0.399860        -1.761870
 O         1.586471         0.686665        -1.392533
 O         2.269410         0.144601         0.830795
 H        -0.387409        -0.589648         1.050265
 H        -0.054095         1.138058         0.930375
 H        -0.855787         0.326907        -0.541582
 H         1.811714        -2.391272        -0.024926
 H         1.328432        -1.916013        -1.780125
 H         3.912480        -1.653031        -1.610057
 H         4.311593        -0.494676         0.987496
 H         3.962737         2.005453        -0.411391
 H         4.879503         0.718900        -1.292085
 H         3.135351         0.783780        -2.731782
