19
Iteration:  1571
 C        -0.034809         0.077431         0.428220
 C         1.320178        -0.085354        -0.281669
 C         1.642548        -1.449634        -0.773987
 C         3.096637        -1.005934        -1.025986
 C         3.587639        -0.163569         0.174599
 C         4.005477         0.981603        -0.744312
 C         2.944065         0.387820        -1.726741
 O         1.632573         0.819663        -1.326253
 O         2.261284         0.040102         0.809690
 H         0.093598        -0.549768         1.230683
 H        -0.062954         1.078662         0.791685
 H        -0.697957        -0.156703        -0.289765
 H         1.374990        -2.257245        -0.025725
 H         1.171254        -1.606347        -1.770465
 H         3.778406        -1.674627        -1.534277
 H         4.186904        -0.441053         1.064605
 H         3.858908         1.992630        -0.339495
 H         5.002845         0.562209        -1.097478
 H         2.857592         0.650176        -2.833372
