19
Iteration:  1476charge 0 multiplicity 1
 C        -0.069216         0.032830         0.421754
 C         1.356322        -0.125466        -0.195247
 C         1.660204        -1.461019        -0.866052
 C         3.098534        -1.083245        -1.098839
 C         3.543552        -0.213240         0.190682
 C         4.004486         1.000598        -0.745533
 C         2.927060         0.369373        -1.706265
 O         1.619048         0.809465        -1.244483
 O         2.324019         0.220473         0.811551
 H        -0.482869        -0.751883         1.223555
 H        -0.068440         1.101363         0.888865
 H        -0.708492         0.196191        -0.502644
 H         1.519969        -2.430935        -0.372162
 H         1.113854        -1.384254        -1.791993
 H         3.807301        -1.740310        -1.669253
 H         4.284685        -0.620270         0.888141
 H         3.758868         2.012460        -0.374727
 H         5.020478         0.792365        -1.039515
 H         3.023218         0.373681        -2.790068
