19
Iteration:   452charge 0 multiplicity 1
 C        -0.035006         0.078640         0.376842
 C         1.360057        -0.163490        -0.141813
 C         1.690760        -1.518563        -0.847514
 C         3.085432        -1.019816        -1.129144
 C         3.558339        -0.226787         0.115309
 C         4.019787         0.946206        -0.759275
 C         2.869403         0.504537        -1.721511
 O         1.572987         0.830115        -1.189086
 O         2.344308         0.147251         0.832137
 H        -0.255203        -0.481032         1.235983
 H        -0.177278         1.142134         0.597601
 H        -0.862361        -0.117954        -0.386259
 H         1.732582        -2.334545        -0.102270
 H         1.084954        -1.679710        -1.743349
 H         3.746817        -1.678088        -1.667927
 H         4.255977        -0.731314         0.870421
 H         3.950297         1.956955        -0.367939
 H         5.007433         0.558524        -1.100493
 H         2.862791         0.783981        -2.799444
