19
Iteration:  2412
 C        -0.039126         0.181682         0.274946
 C         1.286901        -0.103401        -0.220605
 C         1.679731        -1.485789        -0.694707
 C         3.200040        -1.046892        -1.000963
 C         3.573938        -0.132914         0.227981
 C         3.970573         1.020518        -0.806461
 C         2.906042         0.338718        -1.699998
 O         1.601594         0.766607        -1.281909
 O         2.272000         0.044560         0.783462
 H        -0.452250        -0.632770         0.949419
 H        -0.103798         1.177933         0.831251
 H        -0.704209         0.268166        -0.565465
 H         1.568671        -2.356305         0.025606
 H         1.276847        -1.641728        -1.734486
 H         3.916169        -1.793642        -1.362559
 H         4.363628        -0.293626         0.957807
 H         3.839202         2.072141        -0.503010
 H         4.941423         0.789267        -1.233625
 H         3.044549         0.427663        -2.814414
