19
Iteration:  3870
 C        -0.062460         0.158476         0.267410
 C         1.328810        -0.171138        -0.208591
 C         1.721147        -1.482820        -0.739194
 C         3.134033        -1.065242        -1.018099
 C         3.515231        -0.155394         0.213259
 C         3.906175         1.004296        -0.699159
 C         2.987220         0.405039        -1.807464
 O         1.605349         0.759256        -1.347404
 O         2.327361         0.139583         0.927211
 H        -0.231142        -0.666628         1.031709
 H        -0.315470         1.232278         0.441836
 H        -0.735285        -0.099706        -0.686547
 H         1.679327        -2.321799        -0.057019
 H         1.050643        -1.695621        -1.606085
 H         3.695648        -1.904139        -1.403128
 H         4.400909        -0.616635         0.685837
 H         3.650958         1.998337        -0.295039
 H         4.978170         1.022338        -1.081665
 H         3.149391         0.614886        -2.863218
