19
Iteration:  4577
 C        -0.122752         0.142675         0.327189
 C         1.252988        -0.073272        -0.241181
 C         1.724070        -1.450962        -0.667811
 C         3.227109        -1.026455        -1.068923
 C         3.484499        -0.194464         0.243115
 C         3.967186         1.007241        -0.784677
 C         3.071956         0.363474        -1.758128
 O         1.636689         0.704599        -1.348617
 O         2.235862         0.124834         0.845053
 H        -0.206219        -0.527010         1.230521
 H        -0.344864         1.256446         0.538851
 H        -0.786829        -0.143153        -0.562452
 H         1.749251        -2.218803         0.060642
 H         1.299095        -1.771784        -1.559452
 H         3.929872        -1.812705        -1.309608
 H         4.024785        -0.643363         1.098446
 H         3.630286         2.051969        -0.466509
 H         5.040265         0.928357        -1.149831
 H         3.049937         0.651124        -2.884132
