19
Iteration:  3124
 C        -0.097650         0.139282         0.291062
 C         1.310484        -0.117324        -0.236414
 C         1.727053        -1.498527        -0.672686
 C         3.121153        -1.007062        -1.024681
 C         3.623471        -0.173346         0.230616
 C         3.961919         1.004465        -0.699036
 C         2.956287         0.308573        -1.696004
 O         1.593605         0.852043        -1.415310
 O         2.281577         0.064951         0.788401
 H         0.055402        -0.060392         1.361094
 H        -0.246183         1.268545         0.290264
 H        -0.766220        -0.509219        -0.274478
 H         1.680057        -2.206933         0.256670
 H         0.950967        -1.859189        -1.531429
 H         3.822721        -1.755117        -1.576278
 H         4.124576        -0.721759         1.065265
 H         3.610123         2.033385        -0.475772
 H         5.002063         0.976671        -1.160952
 H         3.138163         0.551897        -2.707248
