19
Iteration:   678
 C         0.015287         0.042858         0.394204
 C         1.283531        -0.106668        -0.217458
 C         1.656781        -1.406222        -0.802067
 C         3.102214        -1.055843        -1.111623
 C         3.621931        -0.212954         0.188162
 C         3.951728         0.937550        -0.799569
 C         2.910290         0.424697        -1.694553
 O         1.597133         0.882756        -1.233694
 O         2.321297         0.065623         0.814101
 H        -0.202456        -0.790627         0.980268
 H         0.054185         0.934722         1.046958
 H        -0.784879         0.235797        -0.440230
 H         1.496660        -2.194772        -0.044361
 H         1.068531        -1.635607        -1.677183
 H         3.683484        -1.753525        -1.722516
 H         4.300437        -0.549282         1.005788
 H         4.004128         2.007712        -0.205090
 H         4.882892         0.894109        -1.404257
 H         2.908564         0.460146        -2.773699
