19
Iteration:  2796
 C        -0.101029         0.143423         0.324268
 C         1.378469        -0.114255        -0.192058
 C         1.728321        -1.424417        -0.802764
 C         3.168241        -1.044759        -1.031354
 C         3.555577        -0.223948         0.219870
 C         3.926919         0.953539        -0.753766
 C         2.923851         0.328368        -1.774197
 O         1.618586         0.703306        -1.307189
 O         2.276887         0.229188         0.847213
 H        -0.402736        -0.771311         0.843028
 H        -0.011453         0.980935         0.982361
 H        -0.824194         0.436429        -0.452295
 H         1.683933        -2.190832        -0.028092
 H         1.089896        -1.458270        -1.735269
 H         3.849330        -1.775493        -1.193129
 H         4.309174        -0.535372         0.953886
 H         3.681382         1.999184        -0.459274
 H         4.945915         0.797160        -1.023989
 H         2.994901         0.443548        -2.872629
