19
Iteration:  2287
 C        -0.110342         0.215810         0.273349
 C         1.263209        -0.055982        -0.208405
 C         1.767593        -1.414836        -0.736596
 C         3.204235        -1.029640        -1.024003
 C         3.660528        -0.215593         0.209764
 C         3.941919         0.946620        -0.714956
 C         2.870105         0.377100        -1.697918
 O         1.545719         0.682931        -1.320463
 O         2.342519         0.084916         0.813306
 H        -0.482950        -0.253563         1.225405
 H        -0.231969         1.332314         0.175964
 H        -0.813797        -0.220091        -0.629051
 H         1.631420        -2.140018         0.069889
 H         1.155773        -1.694043        -1.577708
 H         3.838713        -1.737140        -1.595119
 H         4.349701        -0.632338         0.955615
 H         3.820969         1.864027        -0.159132
 H         4.874625         1.007147        -1.314661
 H         3.087137         0.564097        -2.713164
