19
Iteration:  1882charge 0 multiplicity 1
 C        -0.105074         0.138814         0.346050
 C         1.331259        -0.140653        -0.289359
 C         1.711935        -1.539821        -0.637557
 C         3.101044        -1.104380        -1.083631
 C         3.570095        -0.207164         0.141918
 C         3.990255         1.011934        -0.717392
 C         2.965922         0.460047        -1.722454
 O         1.632652         0.863121        -1.339264
 O         2.268370         0.114478         0.823596
 H        -0.177480        -0.501072         1.207438
 H        -0.100956         1.177633         0.688893
 H        -0.941725        -0.104708        -0.231645
 H         1.652746        -2.422179         0.126276
 H         1.071518        -2.033524        -1.479996
 H         3.855606        -1.718800        -1.449228
 H         4.261539        -0.700487         0.830834
 H         3.836425         2.047965        -0.319547
 H         4.919073         0.649818        -1.306640
 H         3.029028         0.805498        -2.734651
