19
Iteration:   796
 C        -0.042058         0.100114         0.425883
 C         1.330382        -0.187351        -0.163541
 C         1.700632        -1.474587        -0.827637
 C         3.141455        -0.995359        -1.098005
 C         3.628197        -0.261604         0.187997
 C         4.002871         0.893128        -0.753479
 C         2.821171         0.514943        -1.691441
 O         1.524594         0.869532        -1.306862
 O         2.345098         0.093631         0.786831
 H        -0.035039        -0.302154         1.393073
 H        -0.128945         1.208021         0.556388
 H        -1.021143        -0.241585        -0.088649
 H         1.610262        -2.384163        -0.181044
 H         1.136946        -1.566130        -1.771232
 H         3.784912        -1.568281        -1.772266
 H         4.299756        -0.560042         0.991609
 H         4.042861         1.813773        -0.226101
 H         4.916400         0.820973        -1.239765
 H         3.091930         0.560353        -2.763930
