19
Iteration:  3905charge 0 multiplicity 1
 C        -0.088510         0.179935         0.263725
 C         1.242976        -0.168075        -0.270003
 C         1.724372        -1.480089        -0.758192
 C         3.194615        -1.036469        -0.997227
 C         3.524889        -0.189286         0.198570
 C         4.007526         1.011387        -0.718411
 C         2.954425         0.414722        -1.735437
 O         1.583804         0.736156        -1.301050
 O         2.292096         0.112656         0.820869
 H        -0.171847        -0.163289         1.375499
 H        -0.084122         1.264220         0.514007
 H        -0.937570        -0.292079        -0.314944
 H         1.839209        -2.333810        -0.011178
 H         1.241505        -1.891907        -1.629964
 H         3.810659        -1.813142        -1.407311
 H         4.248314        -0.443544         1.006944
 H         3.856038         1.982810        -0.281239
 H         5.037357         0.904626        -1.056252
 H         3.026263         0.679899        -2.777132
