19
Iteration:  1910
 C        -0.049564         0.209208         0.396188
 C         1.375026        -0.141730        -0.193569
 C         1.746853        -1.406375        -0.800966
 C         3.137398        -1.003514        -1.077227
 C         3.565698        -0.254892         0.174523
 C         3.991999         0.961768        -0.624645
 C         2.893246         0.353782        -1.684111
 O         1.506907         0.671093        -1.399205
 O         2.298120         0.182254         0.799805
 H        -0.251369        -0.306051         1.431789
 H        -0.025942         1.353436         0.432325
 H        -0.821164        -0.140213        -0.329565
 H         1.809999        -2.279335        -0.235471
 H         1.227095        -1.570951        -1.708389
 H         3.989057        -1.594197        -1.529301
 H         4.209023        -0.825493         0.866429
 H         3.760656         1.945172        -0.201518
 H         4.918377         0.849605        -1.077237
 H         2.979139         0.555207        -2.806838
