19
Iteration:  3625charge 0 multiplicity 1
 C        -0.138351         0.170364         0.304633
 C         1.265415        -0.102893        -0.180932
 C         1.740192        -1.571209        -0.697090
 C         3.136588        -1.026376        -1.077151
 C         3.533367        -0.159879         0.169339
 C         3.984168         1.033971        -0.715606
 C         3.005913         0.350279        -1.790853
 O         1.622528         0.792573        -1.422239
 O         2.285803         0.102554         0.930926
 H        -0.449196        -0.689690         0.941698
 H        -0.097573         1.050542         0.957638
 H        -0.678577         0.224338        -0.611448
 H         1.882796        -2.182967         0.202471
 H         1.318417        -2.028809        -1.568705
 H         3.831527        -1.824239        -1.430695
 H         4.217826        -0.282038         1.035062
 H         3.359945         1.912306        -0.413595
 H         5.119426         1.026268        -0.907720
 H         3.239664         0.404148        -2.958894
