19
Iteration:  4273charge 0 multiplicity 1
 C        -0.073340         0.178261         0.334937
 C         1.329800        -0.146370        -0.228653
 C         1.800893        -1.432609        -0.786743
 C         3.167617        -1.052649        -1.096475
 C         3.479303        -0.142575         0.284593
 C         3.984668         0.938043        -0.730649
 C         2.970796         0.363158        -1.762366
 O         1.602648         0.728317        -1.363454
 O         2.214200         0.164086         0.836453
 H        -0.198959        -0.534072         1.142941
 H        -0.274673         1.173339         0.707644
 H        -0.896744         0.008801        -0.301975
 H         1.792308        -2.240938         0.127292
 H         1.025631        -1.817105        -1.526622
 H         4.028518        -1.620966        -1.456740
 H         4.106483        -0.470206         1.132352
 H         3.947755         1.911881        -0.250923
 H         5.028073         0.819137        -0.933145
 H         3.059786         0.292107        -2.855980
