19
Iteration:  1693charge 0 multiplicity 1
 C        -0.051908         0.117381         0.397297
 C         1.306532        -0.036274        -0.167766
 C         1.748842        -1.408397        -0.808001
 C         3.147618        -1.051743        -1.052338
 C         3.619723        -0.230026         0.195387
 C         3.953516         0.964120        -0.659998
 C         2.860961         0.374033        -1.707510
 O         1.546433         0.766050        -1.345711
 O         2.309025         0.115413         0.755774
 H        -0.144019        -0.603824         1.257762
 H        -0.046181         1.161738         0.653923
 H        -0.596157        -0.068210        -0.481563
 H         1.456744        -2.298867        -0.122755
 H         1.227509        -1.665984        -1.813050
 H         3.940987        -1.758981        -1.451167
 H         4.212786        -0.626323         1.027945
 H         4.008958         2.068209        -0.334298
 H         4.883459         0.696358        -1.286318
 H         2.948424         0.507505        -2.840433
