19
Iteration:  4683charge 0 multiplicity 1
 C        -0.188760         0.193547         0.278202
 C         1.281478        -0.149766        -0.149510
 C         1.819217        -1.575009        -0.788870
 C         3.152671        -1.000511        -0.998861
 C         3.572301        -0.141993         0.298369
 C         3.981068         0.966832        -0.799164
 C         2.979118         0.335206        -1.724457
 O         1.609217         0.730933        -1.346809
 O         2.270564         0.212067         0.830548
 H        -0.523125        -0.411082         1.090829
 H        -0.151782         1.250897         0.557013
 H        -0.823962        -0.095431        -0.487512
 H         1.800491        -2.452887        -0.143484
 H         1.065085        -1.841467        -1.706166
 H         3.851845        -1.519511        -1.597687
 H         4.100889        -0.613689         1.140125
 H         3.894861         2.019899        -0.618351
 H         5.011830         0.779404        -1.043962
 H         3.139568         0.519679        -2.780749
