19
Iteration:  2904charge 0 multiplicity 1
 C        -0.121979         0.137185         0.375306
 C         1.275739        -0.115293        -0.286381
 C         1.735416        -1.564526        -0.736467
 C         3.190506        -0.996250        -1.104601
 C         3.498031        -0.148881         0.280975
 C         4.028247         0.921080        -0.743347
 C         2.923173         0.368300        -1.744942
 O         1.618695         0.855390        -1.336673
 O         2.292363         0.133417         0.836932
 H        -0.286431        -0.259703         1.391445
 H        -0.485280         1.134711         0.248202
 H        -0.752743        -0.464284        -0.315395
 H         1.739348        -2.319474         0.141645
 H         1.176703        -2.015160        -1.646041
 H         3.908364        -1.671937        -1.387032
 H         4.255203        -0.346899         0.993152
 H         3.977897         2.004243        -0.451770
 H         5.031081         0.713956        -1.166726
 H         3.114878         0.451306        -2.763950
