19
Iteration:  2747charge 0 multiplicity 1
 C        -0.110387         0.165384         0.285742
 C         1.333821        -0.093216        -0.163244
 C         1.813383        -1.495019        -0.715018
 C         3.114774        -0.992148        -1.098892
 C         3.495569        -0.219890         0.211393
 C         4.002380         0.917920        -0.746248
 C         2.935408         0.361583        -1.749679
 O         1.566897         0.740357        -1.278812
 O         2.281523         0.179655         0.821158
 H        -0.311631        -0.467791         1.148684
 H        -0.250326         1.265613         0.343944
 H        -0.611321        -0.156502        -0.612039
 H         1.876629        -2.155733         0.187824
 H         1.194359        -1.739119        -1.546828
 H         3.877242        -1.649718        -1.656942
 H         4.215548        -0.584504         0.933033
 H         3.931351         1.897063        -0.269282
 H         5.008930         0.676966        -1.197831
 H         3.077452         0.720116        -2.758631
