19
Iteration:   198
 C        -0.100388         0.125977         0.416033
 C         1.300145        -0.110256        -0.185760
 C         1.622080        -1.515372        -0.866724
 C         3.086337        -1.078359        -1.077232
 C         3.658499        -0.179889         0.140957
 C         3.942111         1.004914        -0.776293
 C         2.887869         0.392195        -1.692565
 O         1.655037         0.868938        -1.227539
 O         2.393856         0.048460         0.837888
 H        -0.094804        -0.581751         1.273023
 H        -0.305733         1.117799         0.711951
 H        -0.780432        -0.173949        -0.281197
 H         1.334796        -2.377881        -0.310014
 H         1.201214        -1.569274        -1.841643
 H         3.673396        -1.650068        -1.852564
 H         4.447040        -0.636233         0.767094
 H         3.555841         2.047645        -0.344442
 H         4.996440         1.021535        -1.103178
 H         3.042016         0.714437        -2.744361
