19
Iteration:  3932charge 0 multiplicity 1
 C        -0.042266         0.143300         0.320693
 C         1.257065        -0.121878        -0.220856
 C         1.751445        -1.490126        -0.716226
 C         3.199217        -0.958684        -1.094299
 C         3.527963        -0.195176         0.237087
 C         4.002151         0.955943        -0.699251
 C         2.966168         0.347251        -1.746171
 O         1.588148         0.773112        -1.366221
 O         2.210334         0.136532         0.837567
 H        -0.179961        -0.272802         1.261250
 H        -0.347991         1.147048         0.518648
 H        -0.753073        -0.380077        -0.328808
 H         1.968910        -2.310452         0.043018
 H         1.185035        -1.723545        -1.667821
 H         3.764784        -1.687476        -1.754238
 H         4.151727        -0.510748         1.106200
 H         3.918863         2.005879        -0.310525
 H         5.034517         0.672862        -1.019623
 H         3.142993         0.601097        -2.827445
