19
Iteration:  3564
 C        -0.122956         0.113512         0.312675
 C         1.264931        -0.112771        -0.157760
 C         1.766446        -1.442659        -0.724564
 C         3.185494        -0.990792        -1.017911
 C         3.493370        -0.195683         0.204542
 C         3.980845         0.933600        -0.761805
 C         2.969926         0.394287        -1.764578
 O         1.663367         0.757990        -1.349871
 O         2.230335         0.138814         0.826503
 H        -0.309258        -0.557456         1.205350
 H        -0.336287         1.215517         0.495759
 H        -0.856939        -0.095396        -0.458614
 H         1.793702        -2.253394         0.080281
 H         1.333831        -1.964762        -1.654326
 H         4.025149        -1.598727        -1.518559
 H         4.143466        -0.524702         1.039228
 H         4.019520         1.974084        -0.434719
 H         4.945069         0.739559        -1.109626
 H         3.089970         0.586102        -2.822689
