19
Iteration:  4111charge 0 multiplicity 1
 C        -0.113381         0.132618         0.230934
 C         1.303457        -0.118595        -0.204197
 C         1.761841        -1.399043        -0.664429
 C         3.144970        -0.995846        -1.035723
 C         3.566374        -0.175093         0.199072
 C         3.990369         0.933352        -0.718559
 C         2.909877         0.371874        -1.726944
 O         1.579912         0.737013        -1.333046
 O         2.322194         0.126700         0.848014
 H        -0.291670        -0.277479         1.283773
 H        -0.289337         1.261859         0.197329
 H        -0.771028        -0.397225        -0.516830
 H         1.629401        -2.370367        -0.208984
 H         1.275735        -1.786010        -1.663738
 H         3.864614        -1.776924        -1.356143
 H         4.182069        -0.721880         0.926810
 H         3.821867         1.983453        -0.326699
 H         5.035801         0.921042        -1.211513
 H         2.954076         0.616508        -2.785980
