19
Iteration:  1542
 C        -0.130565         0.227989         0.389864
 C         1.296777        -0.110985        -0.149438
 C         1.754388        -1.544322        -0.830441
 C         3.126405        -1.006043        -1.146807
 C         3.582795        -0.248772         0.117144
 C         3.929012         0.963332        -0.670484
 C         2.926484         0.410581        -1.766699
 O         1.613973         0.718791        -1.320879
 O         2.355226         0.140698         0.906055
 H        -0.303160        -0.423892         1.382241
 H        -0.051939         1.337855         0.558596
 H        -0.841562         0.021638        -0.530797
 H         1.630278        -2.381967        -0.171489
 H         1.188439        -1.539572        -1.741756
 H         3.895514        -1.690681        -1.633038
 H         4.232381        -0.746152         0.809665
 H         3.711180         1.924706        -0.126769
 H         5.013410         1.020616        -0.905744
 H         2.803977         0.682498        -2.784630
