19
Iteration:  4163charge 0 multiplicity 1
 C        -0.114839         0.173945         0.335441
 C         1.345476        -0.067456        -0.241101
 C         1.747462        -1.471540        -0.788938
 C         3.186084        -1.048801        -0.974110
 C         3.573972        -0.175554         0.219285
 C         3.969333         0.978206        -0.742147
 C         2.962054         0.388475        -1.773588
 O         1.586757         0.677339        -1.381541
 O         2.207482         0.153903         0.895728
 H        -0.166716        -0.345054         1.295494
 H        -0.076875         1.187478         0.639326
 H        -0.853766        -0.154589        -0.318613
 H         1.642904        -2.392207        -0.184788
 H         1.139680        -1.867602        -1.710210
 H         4.033044        -1.521204        -1.432549
 H         4.207920        -0.713695         0.957981
 H         3.942280         1.997245        -0.386762
 H         4.986769         0.744349        -1.123151
 H         3.004979         0.699921        -2.846354
