19
Iteration:  2057
 C        -0.166652         0.248768         0.320258
 C         1.301721        -0.069397        -0.196238
 C         1.744013        -1.597462        -0.860072
 C         3.161253        -1.135475        -0.961833
 C         3.632125        -0.176596         0.177654
 C         3.878900         1.018378        -0.731541
 C         2.895732         0.363784        -1.692281
 O         1.600288         0.824309        -1.250554
 O         2.391006         0.077081         0.807370
 H        -0.317728        -0.488807         1.077626
 H        -0.018082         1.291272         0.558324
 H        -0.719714         0.163151        -0.723909
 H         1.521160        -2.502105        -0.167959
 H         1.252799        -1.638235        -1.926944
 H         3.872926        -1.649997        -1.626804
 H         4.283558        -0.522036         0.993578
 H         3.617838         2.003577        -0.439260
 H         4.958268         0.897564        -1.019942
 H         2.931990         0.459597        -2.762489
