19
Iteration:   421
 C        -0.162791         0.045821         0.365691
 C         1.311319        -0.081623        -0.161714
 C         1.670572        -1.357724        -0.781725
 C         3.078683        -1.035966        -1.095246
 C         3.679902        -0.250702         0.081939
 C         3.980660         0.976897        -0.720790
 C         2.904837         0.456272        -1.733128
 O         1.527459         0.840669        -1.306098
 O         2.477656         0.031457         0.877727
 H        -0.304114        -0.447442         1.317623
 H        -0.320736         1.098216         0.569366
 H        -0.726240        -0.488278        -0.406932
 H         1.382820        -2.160529        -0.076948
 H         1.020624        -1.714116        -1.615691
 H         3.690545        -1.758516        -1.649504
 H         4.342443        -0.743887         0.803089
 H         3.867638         1.946466        -0.277037
 H         5.118462         0.902971        -0.988973
 H         2.900482         0.640353        -2.745317
