19
Iteration:  2553
 C        -0.090655         0.180548         0.315761
 C         1.236127        -0.082481        -0.255483
 C         1.763133        -1.570685        -0.687351
 C         3.121794        -1.071949        -1.062401
 C         3.564559        -0.215105         0.151581
 C         3.955034         0.972338        -0.727401
 C         2.983007         0.440321        -1.797676
 O         1.619282         0.724267        -1.372750
 O         2.291742         0.174035         0.912283
 H        -0.297207        -0.382761         1.230472
 H         0.014866         1.225282         0.697214
 H        -0.876929         0.099504        -0.414184
 H         1.840455        -2.100256         0.152049
 H         1.194809        -1.947570        -1.491943
 H         3.954664        -1.746404        -1.359315
 H         4.176433        -0.650964         0.900944
 H         3.673797         1.905772        -0.271930
 H         5.013273         0.921692        -0.965649
 H         2.939346         0.726931        -2.824069
