19
Iteration:  4331
 C        -0.099920         0.205036         0.217785
 C         1.316557        -0.174896        -0.151557
 C         1.764198        -1.523540        -0.700618
 C         3.143557        -1.018002        -1.060993
 C         3.523667        -0.171506         0.199951
 C         3.965541         0.940208        -0.758879
 C         2.945458         0.451027        -1.748869
 O         1.638028         0.727242        -1.323211
 O         2.259865         0.174370         0.889066
 H        -0.307170        -0.142973         1.216607
 H        -0.232258         1.267887         0.165406
 H        -0.710050        -0.423458        -0.447065
 H         1.588245        -2.424427        -0.040956
 H         1.024099        -1.646090        -1.585385
 H         4.002434        -1.617761        -1.383596
 H         4.203047        -0.712970         0.842082
 H         3.828853         1.911843        -0.263728
 H         4.939231         0.685953        -1.201355
 H         3.195008         0.441250        -2.778740
