19
Iteration:  2493charge 0 multiplicity 1
 C        -0.149057         0.132909         0.345832
 C         1.355779        -0.063537        -0.132192
 C         1.760287        -1.436189        -0.746747
 C         3.139045        -1.025630        -1.084069
 C         3.520380        -0.185537         0.213534
 C         3.982326         0.916807        -0.750548
 C         2.956777         0.341977        -1.718353
 O         1.617052         0.732171        -1.317910
 O         2.280615         0.193476         0.792048
 H        -0.276345        -0.322008         1.331991
 H        -0.289094         1.171043         0.181992
 H        -0.793523        -0.367640        -0.429813
 H         1.611520        -2.508541        -0.209848
 H         1.027913        -1.730730        -1.527192
 H         3.884204        -1.667816        -1.609896
 H         4.249270        -0.600344         0.974175
 H         3.891097         1.997763        -0.435446
 H         5.061899         0.761469        -1.036042
 H         3.090869         0.552566        -2.817431
