19
Iteration:  2833charge 0 multiplicity 1
 C        -0.061392         0.205655         0.316601
 C         1.267219        -0.115274        -0.177729
 C         1.774224        -1.459861        -0.704438
 C         3.165113        -0.988765        -0.986927
 C         3.581417        -0.195081         0.206979
 C         3.975469         1.008254        -0.736310
 C         2.950892         0.336841        -1.763971
 O         1.570987         0.742818        -1.351599
 O         2.242617         0.048294         0.740624
 H        -0.509106        -0.486929         1.044523
 H         0.058753         1.183447         0.918620
 H        -0.815951         0.439043        -0.428715
 H         1.812113        -2.132680         0.175872
 H         1.110900        -1.893943        -1.441540
 H         4.025982        -1.666065        -1.490726
 H         4.173407        -0.655897         1.064298
 H         3.901854         2.012586        -0.278131
 H         4.996098         0.900146        -1.194418
 H         2.996611         0.399261        -2.914996
