19
Iteration:  2439
 C        -0.084625         0.197095         0.351857
 C         1.299310        -0.153393        -0.135175
 C         1.699846        -1.546517        -0.836126
 C         3.153340        -1.024717        -1.132304
 C         3.589501        -0.182328         0.294252
 C         3.951964         1.005568        -0.730525
 C         2.929445         0.301762        -1.800402
 O         1.625675         0.716264        -1.357498
 O         2.261257         0.227850         0.908212
 H        -0.440937        -0.196463         1.272383
 H        -0.068458         1.180515         0.724813
 H        -0.623136         0.177926        -0.637367
 H         1.961701        -2.434202        -0.307881
 H         1.125218        -1.662407        -1.738819
 H         3.819232        -1.841035        -1.446088
 H         4.426800        -0.449532         0.975670
 H         3.587547         1.938085        -0.260124
 H         4.982822         0.899917        -1.154062
 H         3.176228         0.372757        -2.840721
