19
Iteration:  3649
 C        -0.063494         0.164490         0.214161
 C         1.265218        -0.129990        -0.198591
 C         1.740861        -1.510996        -0.699719
 C         3.206062        -1.031257        -1.012640
 C         3.542067        -0.138517         0.200852
 C         3.972582         1.006430        -0.753317
 C         2.890366         0.362943        -1.706464
 O         1.596377         0.714084        -1.279270
 O         2.278150         0.130526         0.804170
 H        -0.314103        -0.601156         1.014785
 H         0.114766         1.149173         0.746126
 H        -0.681965         0.180117        -0.670315
 H         1.719218        -2.271401        -0.008030
 H         1.316517        -1.666785        -1.657110
 H         4.023402        -1.744294        -1.377523
 H         4.076017        -0.541989         1.037361
 H         3.692555         2.040181        -0.487468
 H         4.889285         0.778844        -1.271168
 H         3.130934         0.745296        -2.718829
