19
Iteration:  2958
 C        -0.069637         0.185949         0.245570
 C         1.329424        -0.097501        -0.164042
 C         1.728535        -1.481451        -0.724779
 C         3.176735        -0.996388        -1.007106
 C         3.597800        -0.208805         0.194790
 C         3.959452         1.019396        -0.723701
 C         2.906563         0.319248        -1.735020
 O         1.575791         0.752084        -1.340491
 O         2.274364         0.079740         0.826707
 H        -0.370745        -0.363317         1.153323
 H        -0.134724         1.217762         0.554269
 H        -0.862787         0.087013        -0.526574
 H         1.799484        -2.411280        -0.074504
 H         1.254591        -1.676938        -1.747997
 H         3.767066        -1.764825        -1.423833
 H         4.287636        -0.432574         0.958321
 H         3.618856         1.964318        -0.220885
 H         4.975004         1.096646        -1.172836
 H         3.122884         0.347446        -2.771066
