19
Iteration:  2529
 C        -0.058720         0.142610         0.301521
 C         1.255211        -0.055676        -0.261037
 C         1.714911        -1.516563        -0.689028
 C         3.130530        -1.040131        -1.050029
 C         3.604918        -0.141286         0.257841
 C         3.944940         0.983478        -0.794455
 C         2.949910         0.305809        -1.688962
 O         1.625541         0.826224        -1.315129
 O         2.299804         0.050450         0.805198
 H        -0.302802        -0.244004         1.269598
 H        -0.209810         1.236404         0.408602
 H        -0.729112        -0.220949        -0.465461
 H         1.695420        -2.260280         0.076523
 H         1.173197        -1.619068        -1.593694
 H         3.870028        -1.600627        -1.528130
 H         4.165407        -0.368693         1.147402
 H         3.778453         2.067781        -0.628532
 H         4.945591         0.759266        -1.174304
 H         2.916133         0.343784        -2.727457
