19
Iteration:  2596
 C        -0.135432         0.187142         0.324138
 C         1.260645        -0.106934        -0.264792
 C         1.788120        -1.526555        -0.705072
 C         3.201074        -1.082634        -0.988618
 C         3.561912        -0.165022         0.235410
 C         3.941567         0.952544        -0.792747
 C         2.954561         0.390470        -1.778842
 O         1.574243         0.798374        -1.355913
 O         2.313953         0.141022         0.874484
 H        -0.477707        -0.656728         0.939736
 H         0.103463         0.998946         1.073895
 H        -0.858790         0.264532        -0.457459
 H         1.421686        -2.389826         0.009723
 H         1.334863        -1.714362        -1.686225
 H         3.969272        -1.815183        -1.382464
 H         4.265523        -0.651619         0.914048
 H         3.731905         1.964786        -0.455438
 H         4.943215         0.928130        -1.253406
 H         3.092375         0.517621        -2.817678
