19
Iteration:     4
 C        -0.053489         0.148360         0.404466
 C         1.345160        -0.114235        -0.203414
 C         1.710662        -1.460445        -0.790107
 C         3.093988        -1.010515        -1.153456
 C         3.589544        -0.228391         0.129703
 C         3.991233         0.961231        -0.728776
 C         2.904230         0.429649        -1.733123
 O         1.584445         0.827262        -1.237042
 O         2.325764         0.044188         0.805085
 H        -0.262185        -0.606771         1.289954
 H        -0.243652         1.148730         0.877004
 H        -0.849112        -0.063847        -0.324643
 H         1.645346        -2.339998        -0.049402
 H         1.072019        -1.787127        -1.636846
 H         3.883435        -1.667345        -1.545641
 H         4.255107        -0.603205         0.950667
 H         3.725706         2.003645        -0.355043
 H         4.974836         0.869016        -1.108745
 H         2.869048         0.658444        -2.756399
