19
Iteration:   911
 C        -0.045612         0.126811         0.434016
 C         1.263574        -0.078186        -0.245682
 C         1.738975        -1.447859        -0.752089
 C         3.128291        -0.981503        -1.161989
 C         3.561756        -0.275607         0.142216
 C         3.911232         0.932616        -0.717106
 C         2.907075         0.465150        -1.821079
 O         1.589240         0.823948        -1.342941
 O         2.350522         0.034900         0.943255
 H        -0.117149        -0.904173         0.977144
 H         0.195905         0.982060         1.153666
 H        -0.899950         0.271798        -0.190388
 H         1.712193        -2.001823         0.205118
 H         1.165443        -1.892788        -1.571782
 H         3.739965        -1.687294        -1.752956
 H         4.334141        -0.698670         0.813197
 H         3.781684         1.952011        -0.343919
 H         5.040012         0.822266        -1.079885
 H         3.031909         0.780298        -2.821413
