19
Iteration:  2418charge 0 multiplicity 1
 C        -0.068162         0.213939         0.271397
 C         1.293023        -0.116232        -0.212399
 C         1.711395        -1.513490        -0.768494
 C         3.183346        -1.037626        -0.993177
 C         3.528196        -0.138912         0.186048
 C         3.960357         1.008549        -0.802338
 C         2.925605         0.342103        -1.687803
 O         1.597819         0.699554        -1.254674
 O         2.315991         0.114080         0.825502
 H        -0.262962        -0.501291         1.099669
 H        -0.049072         1.100417         0.939979
 H        -0.578575         0.285834        -0.759781
 H         1.351879        -2.366268        -0.238302
 H         1.278167        -1.565913        -1.764068
 H         3.986748        -1.703183        -1.310496
 H         4.283021        -0.342366         0.981161
 H         3.630544         2.041024        -0.559362
 H         4.977976         0.728064        -1.154048
 H         2.962505         0.463585        -2.747668
