19
Iteration:  3839charge 0 multiplicity 1
 C        -0.109227         0.168854         0.352055
 C         1.241197        -0.198788        -0.244859
 C         1.803399        -1.590258        -0.750302
 C         3.168579        -1.033894        -0.997695
 C         3.569738        -0.138454         0.231947
 C         3.999718         0.969201        -0.746003
 C         2.939338         0.435850        -1.724464
 O         1.609248         0.847236        -1.360126
 O         2.261294         0.151058         0.802929
 H        -0.539722        -0.724094         0.966114
 H        -0.434205         1.069053         0.909588
 H        -0.809679         0.046714        -0.571045
 H         1.907217        -2.230828         0.158420
 H         1.212090        -1.834821        -1.648006
 H         3.868450        -1.725239        -1.440968
 H         4.164791        -0.696162         1.022112
 H         3.926919         1.963429        -0.370223
 H         4.917013         0.669979        -1.240197
 H         3.112995         0.408310        -2.785155
