19
Iteration:  2526
 C        -0.067787         0.136047         0.294969
 C         1.255521        -0.061426        -0.261895
 C         1.707862        -1.514831        -0.722634
 C         3.110829        -1.045406        -1.031622
 C         3.610250        -0.128690         0.248875
 C         3.958333         0.979549        -0.810843
 C         2.957023         0.316408        -1.682232
 O         1.621899         0.814827        -1.313324
 O         2.308186         0.074546         0.847257
 H        -0.263347        -0.300811         1.285117
 H        -0.087354         1.219262         0.301448
 H        -0.795504        -0.264825        -0.467556
 H         1.596291        -2.433407         0.110989
 H         1.075621        -1.649934        -1.672291
 H         3.884219        -1.622574        -1.559965
 H         4.215669        -0.392699         1.173059
 H         3.807986         2.084339        -0.631642
 H         5.016325         0.810028        -1.158402
 H         2.892584         0.402017        -2.801162
