19
Iteration:  1497
 C        -0.142640         0.199569         0.361795
 C         1.345181        -0.127166        -0.178822
 C         1.702270        -1.469871        -0.779691
 C         3.115244        -0.974725        -1.108218
 C         3.573959        -0.207936         0.145057
 C         3.975118         0.937451        -0.751809
 C         2.944758         0.440470        -1.791447
 O         1.601047         0.776430        -1.292030
 O         2.312749         0.019853         0.911514
 H        -0.125668        -0.689618         1.134985
 H        -0.233313         1.194857         0.919929
 H        -0.905351         0.052806        -0.439623
 H         1.789545        -2.204626         0.048201
 H         1.220128        -1.752067        -1.699538
 H         3.914955        -1.607148        -1.557189
 H         4.253217        -0.552107         0.939394
 H         3.865506         2.001012        -0.399978
 H         5.038216         0.807864        -1.195486
 H         2.999974         0.694121        -2.887592
