19
Iteration:  1009charge 0 multiplicity 1
 C        -0.031467         0.182913         0.485463
 C         1.320846        -0.129410        -0.197403
 C         1.692218        -1.555728        -0.861251
 C         3.101579        -0.997226        -1.180051
 C         3.536652        -0.243725         0.195245
 C         3.955812         0.984892        -0.717932
 C         2.950731         0.453462        -1.729026
 O         1.580412         0.764335        -1.286205
 O         2.327647         0.124137         0.814229
 H        -0.027118        -0.443732         1.463496
 H        -0.101425         1.308919         0.530762
 H        -0.815935        -0.205874        -0.147185
 H         1.841221        -2.371067        -0.103788
 H         1.017144        -1.781425        -1.678163
 H         3.815079        -1.586852        -1.745561
 H         4.294399        -0.683615         0.886787
 H         3.727444         1.929470        -0.348423
 H         4.969310         0.989801        -0.934002
 H         3.039424         0.548883        -2.778953
