19
Iteration:   190
 C        -0.123519         0.055597         0.437599
 C         1.327380        -0.101909        -0.206275
 C         1.607447        -1.428057        -0.789221
 C         3.067381        -1.023897        -1.147563
 C         3.644292        -0.192402         0.184152
 C         3.945082         0.971142        -0.774989
 C         2.959305         0.435714        -1.782732
 O         1.647894         0.886734        -1.285118
 O         2.391630        -0.008278         0.875364
 H        -0.340299        -0.610485         1.313184
 H        -0.286823         1.053768         0.882524
 H        -0.788255        -0.215356        -0.410785
 H         1.482660        -2.245352        -0.003873
 H         0.958052        -1.669526        -1.657734
 H         3.723718        -1.703495        -1.725735
 H         4.456271        -0.505007         0.915271
 H         3.636400         2.004608        -0.417676
 H         4.999421         0.891857        -1.046662
 H         3.011369         0.612105        -2.808557
