19
Iteration:  2514
 C        -0.098842         0.143213         0.247079
 C         1.333878        -0.169182        -0.198114
 C         1.656650        -1.492863        -0.835287
 C         3.104649        -1.056971        -0.982469
 C         3.556528        -0.117035         0.214889
 C         4.034165         0.976965        -0.815745
 C         2.936651         0.375255        -1.762327
 O         1.610957         0.739381        -1.279755
 O         2.318011         0.187523         0.955706
 H        -0.118704        -0.256903         1.289163
 H        -0.310632         1.214045         0.361432
 H        -0.941502        -0.300616        -0.348846
 H         1.406762        -2.412486        -0.048431
 H         1.143833        -1.756356        -1.838259
 H         3.832639        -1.823278        -1.391154
 H         4.414840        -0.526751         0.821338
 H         3.840066         2.016720        -0.468461
 H         5.094729         0.846690        -1.177877
 H         3.097710         0.519960        -2.888484
