19
Iteration:  2556charge 0 multiplicity 1
 C        -0.074368         0.169461         0.315994
 C         1.243889        -0.095990        -0.268367
 C         1.740202        -1.574420        -0.675640
 C         3.105274        -1.064329        -1.095577
 C         3.559563        -0.214652         0.173359
 C         3.968581         0.982826        -0.719092
 C         2.990461         0.434978        -1.767837
 O         1.610006         0.711071        -1.383343
 O         2.300340         0.193979         0.917595
 H        -0.353058        -0.361823         1.246593
 H         0.011250         1.203984         0.689639
 H        -0.910065         0.203386        -0.436675
 H         1.866030        -2.271184         0.197121
 H         1.149770        -1.885957        -1.572125
 H         3.997794        -1.726237        -1.427201
 H         4.252540        -0.654963         0.956226
 H         3.640853         1.931056        -0.302215
 H         5.029219         0.933678        -1.030380
 H         2.952761         0.752246        -2.891126
