19
Iteration:  2648
 C        -0.169027         0.132094         0.261883
 C         1.271143        -0.056271        -0.203682
 C         1.757111        -1.523843        -0.800404
 C         3.125046        -1.032805        -1.043524
 C         3.658513        -0.186282         0.265366
 C         3.989437         0.911568        -0.739721
 C         2.887666         0.356337        -1.676178
 O         1.535202         0.762220        -1.336715
 O         2.388479         0.221112         0.855166
 H        -0.461666        -0.502155         1.083678
 H        -0.168450         1.164064         0.645313
 H        -0.675966        -0.099409        -0.647068
 H         1.727196        -2.314145         0.082587
 H         1.224130        -1.822528        -1.709692
 H         3.827090        -1.621015        -1.558338
 H         4.389419        -0.579680         0.980314
 H         3.815921         1.954437        -0.378401
 H         4.952234         0.838785        -1.282373
 H         2.958922         0.305034        -2.737665
