19
Iteration:  4226
 C        -0.106455         0.086651         0.234801
 C         1.309219        -0.047318        -0.209814
 C         1.693677        -1.457593        -0.654134
 C         3.162860        -1.004424        -1.059970
 C         3.590543        -0.117198         0.211181
 C         3.964797         0.976162        -0.683415
 C         2.957474         0.319420        -1.769870
 O         1.599965         0.748619        -1.376714
 O         2.300322         0.106270         0.864328
 H        -0.584083        -0.697149         0.838181
 H        -0.138690         1.015238         0.812244
 H        -0.746861         0.394790        -0.617036
 H         1.679444        -2.385629         0.170700
 H         1.108367        -1.933137        -1.406367
 H         3.794024        -1.753978        -1.561152
 H         4.283507        -0.548626         0.959523
 H         3.814881         2.010796        -0.475420
 H         5.023882         0.856417        -0.957490
 H         3.103361         0.557678        -2.855393
