19
Iteration:  4458
 C        -0.100874         0.149891         0.281356
 C         1.262200        -0.129281        -0.193000
 C         1.675240        -1.475888        -0.742882
 C         3.139447        -1.035708        -0.965724
 C         3.514712        -0.170966         0.181684
 C         3.994510         1.022673        -0.772985
 C         3.005714         0.342335        -1.748842
 O         1.638835         0.680007        -1.362742
 O         2.287361         0.183649         0.881287
 H        -0.398910        -0.711982         0.890012
 H        -0.185997         1.152382         0.791013
 H        -0.658464         0.237974        -0.663690
 H         1.775097        -2.326473        -0.003783
 H         1.282238        -1.704163        -1.674980
 H         3.801025        -1.751633        -1.342831
 H         4.261491        -0.356059         0.968519
 H         3.812818         1.976113        -0.230217
 H         5.046526         0.907820        -1.161594
 H         3.157910         0.580554        -2.808010
