19
Iteration:  2421
 C        -0.079693         0.226236         0.268843
 C         1.312998        -0.135040        -0.194132
 C         1.734942        -1.521564        -0.815564
 C         3.159852        -1.039861        -0.985533
 C         3.519997        -0.133078         0.175027
 C         3.945198         0.991576        -0.797372
 C         2.943198         0.341291        -1.693943
 O         1.598957         0.675049        -1.254142
 O         2.332602         0.155784         0.857129
 H        -0.290012        -0.568205         1.132050
 H        -0.010629         1.225236         0.946391
 H        -0.633293         0.282896        -0.726108
 H         1.289497        -2.401888        -0.318941
 H         1.224036        -1.574958        -1.830072
 H         3.988283        -1.638938        -1.331999
 H         4.208215        -0.440925         0.988551
 H         3.618657         2.038673        -0.576659
 H         4.969211         0.801903        -1.088245
 H         2.901967         0.485943        -2.790433
