19
Iteration:  4152charge 0 multiplicity 1
 C        -0.051045         0.157031         0.345884
 C         1.273713        -0.124925        -0.200668
 C         1.795752        -1.475565        -0.737744
 C         3.166546        -0.999095        -1.062438
 C         3.500633        -0.235360         0.208804
 C         3.952809         0.961667        -0.723826
 C         2.994156         0.386340        -1.777761
 O         1.624307         0.730285        -1.349353
 O         2.209573         0.170194         0.820548
 H        -0.065353        -0.380233         1.294929
 H        -0.280321         1.186096         0.439856
 H        -0.866802        -0.172182        -0.213157
 H         1.688297        -2.090209         0.170502
 H         1.208225        -1.684261        -1.731975
 H         3.828646        -1.735914        -1.461218
 H         4.245007        -0.486301         0.979214
 H         3.719115         1.946682        -0.341046
 H         5.037956         0.866522        -0.890432
 H         3.156832         0.362624        -2.881318
