19
Iteration:  4352
 C        -0.089071         0.170573         0.315628
 C         1.287126        -0.112153        -0.287183
 C         1.713800        -1.480662        -0.739202
 C         3.084455        -1.035630        -1.051005
 C         3.596874        -0.104469         0.285110
 C         4.069366         1.007111        -0.724105
 C         2.999288         0.336917        -1.715981
 O         1.565127         0.752641        -1.337367
 O         2.234392         0.083068         0.790663
 H        -0.278697        -0.248781         1.274899
 H        -0.214597         1.221997         0.415464
 H        -0.828772        -0.283976        -0.346993
 H         1.675775        -2.211620         0.188500
 H         1.344591        -2.134225        -1.625355
 H         3.795867        -1.773132        -1.386773
 H         4.264182        -0.420939         1.092250
 H         3.982160         2.100288        -0.632591
 H         5.061976         0.644216        -0.953568
 H         3.065742         0.617364        -2.745881
