19
Iteration:  2191charge 0 multiplicity 1
 C        -0.031009         0.222529         0.279930
 C         1.297583        -0.155193        -0.174769
 C         1.781420        -1.573470        -0.741300
 C         3.089654        -1.083448        -1.181052
 C         3.598823        -0.161190         0.208681
 C         3.959743         0.975328        -0.664848
 C         2.913248         0.390606        -1.675465
 O         1.592579         0.738527        -1.282535
 O         2.297828         0.179552         0.789443
 H        -0.715437        -0.359328         0.863340
 H        -0.027103         1.220939         0.684601
 H        -0.635124         0.335958        -0.552664
 H         1.662774        -2.321085         0.094917
 H         1.079714        -1.996090        -1.554917
 H         3.807504        -1.699615        -1.738956
 H         4.167938        -0.441022         1.107218
 H         3.783377         1.988452        -0.229511
 H         4.952914         0.887167        -1.129895
 H         2.973075         0.572646        -2.732878
