19
Iteration:  4615charge 0 multiplicity 1
 C        -0.063741         0.146179         0.284627
 C         1.359973        -0.133683        -0.232707
 C         1.740077        -1.508282        -0.728961
 C         3.165004        -1.048567        -0.996694
 C         3.520066        -0.221756         0.301691
 C         4.008373         1.021920        -0.730815
 C         2.972244         0.440232        -1.689052
 O         1.551411         0.650670        -1.336889
 O         2.247360         0.228123         0.729800
 H        -0.593611        -0.584114         0.863888
 H         0.003411         1.044281         0.829973
 H        -0.781011         0.280154        -0.506000
 H         1.541761        -2.347276         0.035185
 H         1.174618        -1.757720        -1.741818
 H         3.903012        -1.735049        -1.446107
 H         4.209409        -0.455169         1.099826
 H         3.865597         2.057003        -0.472551
 H         4.981456         0.890778        -1.195382
 H         3.096932         0.454945        -2.716018
