19
Iteration:  3403
 C        -0.187068         0.212579         0.291525
 C         1.306994        -0.142526        -0.274175
 C         1.853463        -1.594523        -0.683535
 C         3.123996        -1.034584        -1.030622
 C         3.552287        -0.176764         0.195844
 C         3.997235         0.959623        -0.738003
 C         2.911948         0.410620        -1.752330
 O         1.639678         0.772599        -1.327156
 O         2.241144         0.176983         0.886317
 H        -0.379542        -0.711845         0.834211
 H        -0.095735         1.166383         0.917444
 H        -0.911016         0.155893        -0.535788
 H         1.634293        -2.353301         0.105187
 H         1.316836        -1.970089        -1.613195
 H         4.067432        -1.552408        -1.463667
 H         4.335354        -0.674018         0.828423
 H         3.838748         2.083748        -0.586724
 H         5.102378         0.791626        -1.063706
 H         2.896085         0.522435        -2.934231
