19
Iteration:  2390charge 0 multiplicity 1
 C        -0.140077         0.109183         0.298371
 C         1.251752        -0.069426        -0.223319
 C         1.766358        -1.549900        -0.639010
 C         3.102913        -0.987676        -1.123161
 C         3.510470        -0.224150         0.188486
 C         4.016523         0.938168        -0.756891
 C         2.963129         0.410189        -1.779452
 O         1.648463         0.821020        -1.394250
 O         2.300777         0.144120         0.922035
 H        -0.361792        -0.718005         1.047668
 H        -0.244368         1.054667         0.946814
 H        -0.857615         0.163687        -0.502286
 H         1.918531        -2.030510         0.382209
 H         1.147759        -2.192011        -1.376849
 H         3.892559        -1.650451        -1.491407
 H         4.350544        -0.593416         0.813125
 H         3.681502         1.933189        -0.428889
 H         5.051732         0.780808        -1.003636
 H         3.186022         0.559300        -2.880255
