19
Iteration:  3004
 C        -0.116106         0.142356         0.319597
 C         1.330676        -0.135609        -0.212437
 C         1.785699        -1.442111        -0.731717
 C         3.175277        -1.029998        -0.963669
 C         3.588508        -0.185067         0.234838
 C         4.007088         0.938803        -0.784300
 C         2.892830         0.382408        -1.743408
 O         1.589275         0.763920        -1.339792
 O         2.227795         0.142683         0.803989
 H        -0.620908        -0.692798         0.812771
 H        -0.180218         1.043718         0.989700
 H        -0.658914         0.374155        -0.579376
 H         1.647583        -2.138708         0.148017
 H         1.240296        -1.789272        -1.694602
 H         3.939348        -1.626041        -1.457936
 H         4.238037        -0.787671         0.883024
 H         3.767573         1.991290        -0.516491
 H         5.077253         0.850933        -1.100586
 H         3.114173         0.481809        -2.802334
