19
Iteration:  2113charge 0 multiplicity 1
 C        -0.115198         0.100114         0.365249
 C         1.262668        -0.075234        -0.264232
 C         1.731610        -1.425036        -0.796153
 C         3.156322        -1.032631        -1.050839
 C         3.627252        -0.217796         0.218000
 C         3.993149         0.896631        -0.722217
 C         2.964163         0.350099        -1.711533
 O         1.595252         0.852417        -1.299160
 O         2.256295         0.141209         0.775517
 H        -0.028154        -0.362118         1.351510
 H        -0.285111         1.119372         0.636417
 H        -0.963960        -0.363177        -0.320317
 H         1.783447        -2.136566         0.128395
 H         1.058300        -1.899770        -1.625142
 H         3.825985        -1.753625        -1.574261
 H         4.165169        -0.574322         1.098642
 H         3.951419         1.925014        -0.397816
 H         5.034022         0.825925        -1.092211
 H         3.000205         0.434681        -2.755255
