19
Iteration:   809charge 0 multiplicity 1
 C        -0.064529         0.080141         0.474501
 C         1.297529        -0.046064        -0.183078
 C         1.763135        -1.418118        -0.830010
 C         3.107742        -1.006420        -1.107511
 C         3.660249        -0.285108         0.140432
 C         3.947169         0.925122        -0.696153
 C         2.866432         0.366786        -1.671121
 O         1.562422         0.852395        -1.243093
 O         2.353570         0.108126         0.706009
 H        -0.272817        -0.450926         1.386655
 H        -0.262663         1.129835         0.584053
 H        -0.647039        -0.441724        -0.406588
 H         1.483354        -2.254931        -0.206548
 H         1.150317        -1.504156        -1.745484
 H         3.877808        -1.574604        -1.639494
 H         4.311705        -0.762611         0.909781
 H         3.816501         1.999483        -0.328973
 H         4.772944         0.698260        -1.263535
 H         2.791549         0.661680        -2.684542
