19
Iteration:  3286charge 0 multiplicity 1
 C        -0.090335         0.104061         0.249519
 C         1.301770        -0.050775        -0.228696
 C         1.690789        -1.524068        -0.723522
 C         3.141997        -1.094354        -1.078672
 C         3.618200        -0.174491         0.195511
 C         3.923636         0.968780        -0.734633
 C         2.947701         0.365940        -1.730769
 O         1.674444         0.776180        -1.317289
 O         2.286092         0.206020         0.867403
 H        -0.278848        -0.474280         1.171579
 H        -0.542168         1.087270         0.525084
 H        -0.913768        -0.332257        -0.384996
 H         1.518576        -2.221910         0.086846
 H         0.994424        -1.870963        -1.477710
 H         3.867481        -1.934380        -1.287575
 H         4.345168        -0.302225         1.015321
 H         3.696714         1.975579        -0.423988
 H         4.973846         0.914583        -0.969852
 H         3.177114         0.567957        -2.908605
