19
Iteration:   202
 C        -0.051652         0.152242         0.404198
 C         1.291375        -0.100295        -0.166654
 C         1.648242        -1.531831        -0.905039
 C         3.098548        -1.090410        -1.063770
 C         3.637547        -0.199728         0.107724
 C         3.945652         1.025455        -0.761395
 C         2.864506         0.382485        -1.663126
 O         1.635150         0.844431        -1.188073
 O         2.386807         0.074801         0.817190
 H        -0.020084        -0.555934         1.245943
 H        -0.287562         1.238158         0.602236
 H        -0.936786        -0.177314        -0.278065
 H         1.326164        -2.496771        -0.373227
 H         1.272662        -1.492564        -1.972444
 H         3.714972        -1.670300        -1.739595
 H         4.395003        -0.684987         0.785356
 H         3.653161         1.987451        -0.338708
 H         4.955790         1.133784        -1.192047
 H         2.976400         0.617038        -2.685519
