19
Iteration:  2214
 C        -0.072011         0.160755         0.321654
 C         1.286796        -0.060843        -0.144726
 C         1.688215        -1.456832        -0.801595
 C         3.109432        -0.981975        -0.998284
 C         3.604503        -0.198141         0.205575
 C         3.958697         0.963040        -0.757249
 C         2.992049         0.411299        -1.783071
 O         1.589613         0.690346        -1.390359
 O         2.314080         0.096658         0.893632
 H        -0.455207        -0.691941         0.893207
 H        -0.204656         1.075508         0.931566
 H        -0.734532         0.207058        -0.418632
 H         1.433863        -2.334469        -0.113051
 H         1.092718        -1.746144        -1.744887
 H         3.960871        -1.640697        -1.096139
 H         4.276404        -0.656550         0.955934
 H         3.876625         2.062054        -0.429406
 H         5.005431         0.854005        -1.123550
 H         3.085103         0.492765        -2.880349
