19
Iteration:  1754charge 0 multiplicity 1
 C        -0.090348         0.151252         0.299990
 C         1.325328        -0.121287        -0.205804
 C         1.726506        -1.506182        -0.825727
 C         3.165676        -1.044513        -1.024514
 C         3.628144        -0.175140         0.225054
 C         3.934864         0.910280        -0.798448
 C         2.881643         0.391671        -1.773569
 O         1.588053         0.842490        -1.246813
 O         2.334563         0.090509         0.897325
 H        -0.382829        -0.248637         1.219513
 H        -0.255695         1.193399         0.548584
 H        -1.083718        -0.008592        -0.291705
 H         1.588559        -2.338751        -0.169394
 H         1.394631        -1.597879        -1.850422
 H         3.915714        -1.711352        -1.383604
 H         4.354471        -0.602637         0.950481
 H         3.752857         1.916293        -0.510417
 H         4.887740         0.821169        -1.310090
 H         2.815269         0.636401        -2.833741
