19
Iteration:  2494
 C        -0.150492         0.137469         0.349871
 C         1.353044        -0.060550        -0.123450
 C         1.758961        -1.435515        -0.749209
 C         3.141979        -1.020453        -1.085066
 C         3.516019        -0.187409         0.207291
 C         3.976608         0.917643        -0.749881
 C         2.960242         0.340675        -1.726559
 O         1.623783         0.722116        -1.311936
 O         2.281903         0.195373         0.791419
 H        -0.283028        -0.345853         1.311393
 H        -0.290446         1.163020         0.153123
 H        -0.770080        -0.377522        -0.431454
 H         1.612009        -2.479905        -0.269226
 H         1.045305        -1.711112        -1.522680
 H         3.886106        -1.669776        -1.552834
 H         4.224567        -0.604902         0.973926
 H         3.916532         2.005387        -0.434214
 H         5.046184         0.757016        -1.035894
 H         3.052714         0.547109        -2.801346
