19
Iteration:   877
 C        -0.067166         0.162846         0.397807
 C         1.270374        -0.203282        -0.202890
 C         1.654944        -1.525638        -0.844663
 C         3.132688        -0.998967        -1.106250
 C         3.693656        -0.229523         0.152805
 C         3.962294         0.994371        -0.737092
 C         2.821813         0.427458        -1.676715
 O         1.564579         0.808081        -1.249115
 O         2.395829         0.129267         0.829745
 H        -0.558826        -0.470745         1.277338
 H         0.266420         1.041616         1.000438
 H        -0.812728         0.402210        -0.408224
 H         1.507129        -2.460645        -0.332098
 H         1.338147        -1.790325        -1.895230
 H         3.783108        -1.642292        -1.731863
 H         4.455320        -0.796625         0.771351
 H         3.580124         1.960770        -0.281614
 H         4.974129         0.932995        -1.273998
 H         3.084158         0.560987        -2.672652
