19
Iteration:  4992
 C        -0.069879         0.156549         0.154092
 C         1.377759        -0.046705        -0.164747
 C         1.753599        -1.449891        -0.658707
 C         3.108527        -1.055719        -1.009788
 C         3.536518        -0.208912         0.226819
 C         3.896275         1.043904        -0.747330
 C         2.973737         0.340617        -1.702547
 O         1.587474         0.691537        -1.373245
 O         2.327266         0.152263         0.844958
 H        -0.438574        -0.634307         0.819231
 H        -0.200289         1.119606         0.582485
 H        -0.658313        -0.079377        -0.718941
 H         1.629628        -2.164723         0.233753
 H         1.002596        -1.786542        -1.529315
 H         3.726542        -1.862766        -1.262222
 H         4.334178        -0.535431         0.873471
 H         3.600364         2.027667        -0.411533
 H         4.984311         0.981948        -0.997140
 H         3.075310         0.338652        -2.775307
