19
Iteration:  2023
 C        -0.023862         0.146028         0.376752
 C         1.308733        -0.054141        -0.171915
 C         1.772643        -1.471700        -0.779839
 C         3.090578        -1.004989        -1.162926
 C         3.460119        -0.184539         0.255836
 C         3.948576         0.974339        -0.680673
 C         2.999019         0.380839        -1.789023
 O         1.626238         0.732707        -1.366254
 O         2.269732         0.108092         0.834244
 H        -0.309052        -0.657654         1.111199
 H        -0.125150         1.087142         1.053393
 H        -0.996297         0.174026        -0.298341
 H         1.812271        -2.251029         0.047170
 H         0.970613        -1.963949        -1.452247
 H         3.837723        -1.538450        -1.716851
 H         4.225599        -0.558302         0.951729
 H         3.882534         2.048716        -0.546580
 H         4.955133         0.565495        -0.857338
 H         3.347318         0.474931        -2.827778
