19
Iteration:  3544
 C        -0.045973         0.088341         0.218041
 C         1.325223        -0.052079        -0.273385
 C         1.714220        -1.516316        -0.714643
 C         3.099173        -1.047131        -1.093147
 C         3.569381        -0.152025         0.291757
 C         3.958209         1.000771        -0.713286
 C         2.962545         0.388350        -1.750690
 O         1.586813         0.790705        -1.342204
 O         2.308217         0.100041         0.902660
 H        -0.063583        -0.418078         1.155852
 H        -0.297691         1.136725         0.303201
 H        -0.772714        -0.322094        -0.467252
 H         1.488923        -2.260126         0.091062
 H         0.916043        -1.739356        -1.472421
 H         3.776776        -1.845946        -1.384990
 H         4.297932        -0.372903         1.080770
 H         3.811241         2.061638        -0.564411
 H         5.006559         0.893473        -0.985672
 H         3.130748         0.359507        -2.763738
