19
Iteration:  4014
 C        -0.095475         0.187203         0.331026
 C         1.327961        -0.137714        -0.234477
 C         1.789677        -1.594709        -0.752257
 C         3.131415        -1.017900        -1.015200
 C         3.602893        -0.116177         0.225502
 C         4.045562         1.011130        -0.701573
 C         2.894696         0.339166        -1.675578
 O         1.565185         0.777196        -1.347215
 O         2.243615         0.100195         0.747850
 H        -0.554252        -0.719809         0.854851
 H        -0.103331         1.220634         0.754811
 H        -0.744639         0.415260        -0.547850
 H         1.662723        -2.264658         0.037298
 H         1.095141        -1.896066        -1.459942
 H         3.804485        -1.656795        -1.580905
 H         4.159780        -0.485211         1.083212
 H         3.868868         2.037471        -0.331706
 H         5.076371         0.912923        -1.122796
 H         3.039980         0.604783        -2.693392
