19
Iteration:  1303charge 0 multiplicity 1
 C        -0.052600         0.162305         0.344972
 C         1.325425        -0.115042        -0.168597
 C         1.707178        -1.567703        -0.761986
 C         3.097095        -1.066606        -1.156121
 C         3.531719        -0.188446         0.204007
 C         3.937473         0.976022        -0.735121
 C         2.928031         0.436235        -1.787488
 O         1.622560         0.843007        -1.201311
 O         2.339166         0.083363         0.805711
 H        -0.326857        -0.761142         0.881526
 H        -0.098940         1.146478         0.870807
 H        -0.500747         0.183829        -0.582437
 H         1.756785        -2.296750         0.051523
 H         1.022029        -1.827119        -1.535734
 H         3.772870        -1.810005        -1.661918
 H         4.317496        -0.493778         0.890292
 H         3.643293         2.079753        -0.680626
 H         5.058674         0.819850        -0.857484
 H         2.883300         0.757889        -2.783449
