19
Iteration:   461charge 0 multiplicity 1
 C        -0.031913         0.065577         0.442404
 C         1.289112        -0.176193        -0.165992
 C         1.690967        -1.489356        -0.785874
 C         3.082542        -1.001679        -1.197994
 C         3.446476        -0.166119         0.088326
 C         4.031292         0.934882        -0.751544
 C         2.949456         0.498154        -1.786251
 O         1.641262         0.808681        -1.190963
 O         2.300441         0.085955         0.849704
 H        -0.291554        -0.474411         1.322004
 H         0.118248         1.151865         0.724553
 H        -0.876652        -0.030108        -0.388364
 H         1.726434        -2.270475         0.007700
 H         1.034477        -1.849178        -1.560522
 H         3.889553        -1.592367        -1.671122
 H         4.338789        -0.588820         0.716858
 H         4.017551         1.994732        -0.336056
 H         5.078093         0.828390        -0.957381
 H         3.006092         0.793470        -2.976746
