19
Iteration:   490
 C        -0.033098         0.182788         0.469798
 C         1.296574        -0.050105        -0.222627
 C         1.729874        -1.472957        -0.851683
 C         3.145851        -1.060218        -1.052217
 C         3.593367        -0.257896         0.181837
 C         3.887265         1.014924        -0.764545
 C         2.879708         0.422676        -1.727021
 O         1.576577         0.853426        -1.329132
 O         2.353444        -0.044198         0.842443
 H        -0.205171        -0.695204         1.174351
 H         0.110190         1.034028         1.126931
 H        -0.753368         0.226477        -0.295560
 H         1.469758        -2.291363        -0.168389
 H         1.264082        -1.828157        -1.784575
 H         3.837463        -1.650067        -1.701372
 H         4.356261        -0.530890         0.842582
 H         3.730200         2.058847        -0.381859
 H         4.911332         1.106075        -1.124492
 H         3.009926         0.531273        -2.767837
