19
Iteration:   372charge 0 multiplicity 1
 C        -0.079480         0.252655         0.490629
 C         1.299426        -0.142185        -0.218691
 C         1.723958        -1.535434        -0.834732
 C         3.158477        -1.000694        -1.032773
 C         3.609659        -0.193004         0.151835
 C         3.969379         0.968825        -0.789020
 C         2.914423         0.499311        -1.721966
 O         1.497969         0.792821        -1.303531
 O         2.363443        -0.052724         0.826296
 H        -0.305777        -0.443287         1.362090
 H        -0.000359         1.269105         0.892964
 H        -0.863021         0.105437        -0.209370
 H         1.633099        -2.524045        -0.422834
 H         1.248809        -1.622684        -1.800963
 H         3.882327        -1.639213        -1.590859
 H         4.308450        -0.539024         0.930746
 H         3.973828         1.993554        -0.337860
 H         4.846678         0.859432        -1.321779
 H         2.948143         0.761823        -2.872313
