19
Iteration:  3767charge 0 multiplicity 1
 C        -0.048207         0.179367         0.236089
 C         1.304813        -0.083178        -0.241493
 C         1.771923        -1.513061        -0.731257
 C         3.146803        -0.992704        -1.061050
 C         3.566393        -0.200744         0.263741
 C         3.920291         0.997464        -0.708401
 C         2.928941         0.334718        -1.713630
 O         1.602507         0.754177        -1.307424
 O         2.249659         0.106975         0.825034
 H        -0.368548        -0.395505         1.109586
 H        -0.075487         1.187680         0.612724
 H        -0.733729         0.026380        -0.516744
 H         1.906844        -2.208657         0.126396
 H         1.392385        -1.938956        -1.643470
 H         3.822091        -1.769634        -1.509255
 H         4.302816        -0.529479         0.987767
 H         3.703954         2.070698        -0.432443
 H         4.907910         0.795231        -1.205697
 H         3.018923         0.582432        -2.801936
