19
Iteration:   914charge 0 multiplicity 1
 C        -0.049767         0.109996         0.439249
 C         1.257284        -0.098648        -0.263959
 C         1.749852        -1.454087        -0.764469
 C         3.112869        -0.983346        -1.139685
 C         3.567880        -0.285445         0.139351
 C         3.896694         0.937761        -0.731489
 C         2.921424         0.451993        -1.791367
 O         1.594837         0.856209        -1.342522
 O         2.359757         0.037367         0.945677
 H        -0.143417        -0.785863         0.955558
 H         0.133246         0.958661         1.086937
 H        -0.928278         0.312414        -0.136155
 H         1.751187        -1.947544         0.215884
 H         1.178326        -1.912080        -1.540668
 H         3.693220        -1.619680        -1.790502
 H         4.316792        -0.661861         0.795624
 H         3.848907         1.942295        -0.361835
 H         4.998468         0.828846        -1.111889
 H         3.008184         0.710319        -2.880618
