19
Iteration:  1638charge 0 multiplicity 1
 C        -0.034156         0.202033         0.306009
 C         1.281808        -0.106540        -0.222041
 C         1.719428        -1.530832        -0.749820
 C         3.121898        -1.018901        -1.084289
 C         3.637724        -0.211227         0.215831
 C         3.913825         0.958097        -0.731900
 C         2.884561         0.400497        -1.716721
 O         1.557753         0.815425        -1.289716
 O         2.366133         0.036453         0.860052
 H        -0.394427        -0.492558         1.054494
 H        -0.007942         1.214496         0.659193
 H        -0.642112         0.193501        -0.610310
 H         1.579739        -2.245911         0.099295
 H         1.252912        -1.693220        -1.745051
 H         3.850729        -1.614946        -1.695887
 H         4.374933        -0.668078         0.904474
 H         3.531541         1.964360        -0.380505
 H         4.925490         1.036372        -1.254271
 H         3.052754         0.615799        -2.820543
