19
Iteration:  2231charge 0 multiplicity 1
 C        -0.130913         0.109667         0.401592
 C         1.294237        -0.068680        -0.257666
 C         1.746595        -1.464595        -0.735371
 C         3.175811        -1.103510        -1.019046
 C         3.537409        -0.141323         0.249422
 C         3.950673         0.943343        -0.774018
 C         2.931435         0.302509        -1.734445
 O         1.659177         0.910682        -1.377690
 O         2.270705         0.092308         0.821031
 H        -0.231609        -0.736259         1.099825
 H        -0.047893         1.025812         0.990230
 H        -0.883505         0.037999        -0.573459
 H         1.618140        -2.274905        -0.042218
 H         1.193833        -1.813194        -1.574590
 H         3.727705        -1.805046        -1.685287
 H         4.273969        -0.404117         1.004995
 H         3.835999         1.980977        -0.550542
 H         5.039960         0.898841        -0.999824
 H         3.138270         0.379933        -2.793684
