19
Iteration:  3631
 C        -0.142878         0.179814         0.312428
 C         1.340470        -0.144132        -0.225424
 C         1.736321        -1.562433        -0.707524
 C         3.120346        -1.013150        -1.085647
 C         3.548582        -0.150081         0.211140
 C         3.940427         1.043065        -0.730605
 C         3.030413         0.366072        -1.760837
 O         1.649345         0.754197        -1.367440
 O         2.271744         0.101157         0.870613
 H        -0.528330        -0.643495         0.896490
 H        -0.266738         1.123001         0.866389
 H        -0.860680         0.302359        -0.566779
 H         1.808199        -2.079966         0.305659
 H         1.119565        -2.056993        -1.536956
 H         3.778692        -1.750755        -1.500823
 H         4.369059        -0.266363         0.954583
 H         3.611785         2.030002        -0.408847
 H         5.003896         1.010935        -0.896218
 H         2.953527         0.275783        -2.794355
