19
Iteration:  3954
 C        -0.130804         0.087215         0.296331
 C         1.313113        -0.104757        -0.258027
 C         1.678678        -1.544064        -0.783134
 C         3.150672        -1.076473        -0.965902
 C         3.609446        -0.181268         0.199916
 C         3.946112         0.996255        -0.705955
 C         2.955134         0.406554        -1.703686
 O         1.629142         0.788041        -1.327934
 O         2.335919         0.174231         0.810466
 H        -0.438985        -0.345795         1.198974
 H        -0.390365         1.101055         0.601219
 H        -0.818718        -0.313178        -0.474578
 H         1.310694        -2.185957         0.101413
 H         1.100859        -1.581476        -1.787488
 H         3.997736        -1.776853        -1.308748
 H         4.365926        -0.691609         0.839772
 H         3.653563         1.997445        -0.315473
 H         4.962204         1.002283        -1.192364
 H         3.159730         0.658368        -2.802530
