19
Iteration:  1980
 C        -0.097688         0.115439         0.275452
 C         1.302039        -0.072335        -0.188270
 C         1.669447        -1.493118        -0.770296
 C         3.108467        -1.027095        -1.086493
 C         3.621614        -0.148677         0.198560
 C         4.020851         0.977951        -0.717257
 C         2.912710         0.349713        -1.648272
 O         1.552453         0.786982        -1.277303
 O         2.386317         0.140522         0.807454
 H        -0.335383        -0.713260         0.957938
 H        -0.289462         1.171198         0.588687
 H        -0.640044        -0.140561        -0.694865
 H         1.560641        -2.405851        -0.067855
 H         0.967435        -1.686657        -1.698323
 H         3.760014        -1.724865        -1.567438
 H         4.297568        -0.473352         1.007013
 H         3.948803         1.966123        -0.281320
 H         4.937022         0.553407        -1.212182
 H         2.933568         0.458916        -2.735269
