19
Iteration:  1071charge 0 multiplicity 1
 C        -0.047702         0.082521         0.346665
 C         1.314620        -0.137016        -0.084520
 C         1.787744        -1.462055        -0.728396
 C         3.124092        -0.984925        -1.156087
 C         3.524397        -0.309780         0.087666
 C         3.973938         0.959387        -0.774777
 C         2.860623         0.453469        -1.812810
 O         1.638783         0.870713        -1.242672
 O         2.301999         0.122922         0.863065
 H        -0.547675        -0.702446         0.961057
 H        -0.132180         1.077712         0.815815
 H        -0.677021         0.150683        -0.513440
 H         1.948403        -2.164679         0.096698
 H         0.979708        -1.850151        -1.395229
 H         3.792492        -1.756254        -1.528959
 H         4.176138        -0.837552         0.834314
 H         3.667372         2.017837        -0.261884
 H         5.129526         0.725425        -0.998142
 H         2.768208         0.489704        -2.933687
