19
Iteration:  1682
 C         0.002998         0.158748         0.382289
 C         1.323537        -0.147462        -0.239626
 C         1.665843        -1.486362        -0.828098
 C         3.109834        -0.993235        -1.034236
 C         3.593952        -0.170683         0.252532
 C         4.001876         0.972534        -0.751979
 C         2.903115         0.398383        -1.703439
 O         1.548846         0.780518        -1.386734
 O         2.294273         0.063827         0.854547
 H        -0.137097        -0.524358         1.252099
 H        -0.012404         1.139923         0.826889
 H        -0.905558         0.073934        -0.180463
 H         1.676410        -2.343364        -0.099466
 H         1.107928        -1.596566        -1.806944
 H         3.811973        -1.642933        -1.622900
 H         4.313279        -0.429588         1.032000
 H         3.857103         2.023046        -0.354134
 H         5.078129         0.811905        -1.121177
 H         3.109486         0.455093        -2.807036
