19
Iteration:   838charge 0 multiplicity 1
 C        -0.035456         0.055762         0.403930
 C         1.308158        -0.165286        -0.160770
 C         1.650183        -1.489929        -0.729060
 C         2.975690        -0.942443        -1.205036
 C         3.605910        -0.170559         0.150393
 C         3.984075         0.989332        -0.763701
 C         2.955297         0.461965        -1.805752
 O         1.693328         0.831909        -1.308389
 O         2.309132         0.016755         0.942408
 H        -0.238268        -0.546759         1.234892
 H         0.019624         1.145168         0.674312
 H        -0.822124        -0.204055        -0.372949
 H         1.646220        -2.350315         0.015213
 H         0.842591        -1.637027        -1.468471
 H         3.755544        -1.585319        -1.606066
 H         4.319723        -0.639084         0.800119
 H         3.859530         1.991678        -0.458993
 H         5.033586         0.818319        -1.165873
 H         2.827936         0.823486        -2.938045
