19
Iteration:   593charge 0 multiplicity 1
 C        -0.123856         0.103509         0.550417
 C         1.300016        -0.151293        -0.135123
 C         1.715188        -1.381902        -0.864084
 C         3.126968        -0.997210        -1.237320
 C         3.538977        -0.239025         0.184185
 C         4.037926         0.950484        -0.727582
 C         2.975503         0.406346        -1.755763
 O         1.581187         0.753864        -1.284747
 O         2.335746         0.130638         0.850674
 H        -0.178537        -0.419407         1.471282
 H        -0.168059         1.203664         0.541340
 H        -0.871196        -0.101716        -0.310546
 H         1.654911        -2.268369        -0.228203
 H         1.014076        -1.379263        -1.706250
 H         3.644201        -1.778431        -1.774220
 H         4.363805        -0.878978         0.657993
 H         3.577762         1.805672        -0.313251
 H         5.004399         0.875853        -1.115558
 H         3.048830         0.759376        -2.913840
