19
Iteration:  4161
 C        -0.106173         0.171852         0.339087
 C         1.339750        -0.068581        -0.233310
 C         1.762990        -1.465468        -0.795486
 C         3.188287        -1.038991        -0.966749
 C         3.560194        -0.207010         0.205690
 C         3.963292         0.979971        -0.747632
 C         2.975021         0.391585        -1.789611
 O         1.590383         0.675545        -1.368362
 O         2.193982         0.160742         0.887524
 H        -0.124723        -0.333064         1.283610
 H        -0.104752         1.183485         0.618524
 H        -0.881078        -0.172078        -0.293616
 H         1.605366        -2.332475        -0.162927
 H         1.197277        -1.827376        -1.562878
 H         3.975692        -1.497766        -1.463456
 H         4.238011        -0.690247         0.932660
 H         3.939552         1.961171        -0.368827
 H         4.967849         0.776191        -1.021518
 H         3.039084         0.652580        -2.877825
