19
Iteration:  1233charge 0 multiplicity 1
 C        -0.076031         0.081024         0.430072
 C         1.321150        -0.080741        -0.262214
 C         1.722466        -1.424964        -0.783222
 C         3.090239        -0.978912        -1.105197
 C         3.586216        -0.279329         0.209838
 C         3.987529         0.951443        -0.732267
 C         2.980993         0.369721        -1.784395
 O         1.554855         0.829456        -1.247533
 O         2.340938         0.113421         0.797183
 H        -0.110069        -0.632437         1.351116
 H        -0.123999         1.201332         0.710187
 H        -1.048843        -0.064815        -0.275727
 H         1.638187        -2.222768        -0.048921
 H         1.170256        -1.599147        -1.735142
 H         3.704012        -1.712713        -1.581245
 H         4.107332        -0.845678         1.009125
 H         3.626467         1.814580        -0.225997
 H         4.938362         1.017281        -1.215366
 H         3.025503         0.563741        -2.919055
