19
Iteration:  2464
 C        -0.036106         0.155449         0.305202
 C         1.283320        -0.060225        -0.360911
 C         1.696999        -1.506412        -0.633524
 C         3.130757        -1.033641        -0.953825
 C         3.513276        -0.213558         0.179912
 C         3.984210         1.013719        -0.706462
 C         2.917641         0.437222        -1.740822
 O         1.598537         0.741408        -1.354492
 O         2.321818         0.069109         0.773037
 H        -0.003905        -0.256061         1.369242
 H        -0.246673         1.239699         0.729723
 H        -0.847144        -0.134787        -0.392262
 H         1.734213        -2.013808         0.282831
 H         1.231523        -2.003029        -1.519231
 H         3.861327        -1.719305        -1.337945
 H         4.324006        -0.734471         0.683157
 H         3.815413         1.989973        -0.194501
 H         4.938886         0.748058        -1.115282
 H         3.188968         0.665295        -2.749346
