19
Iteration:  2759charge 0 multiplicity 1
 C        -0.099586         0.120796         0.227814
 C         1.257053        -0.106299        -0.254806
 C         1.704546        -1.425237        -0.656969
 C         3.162734        -1.045121        -1.068229
 C         3.579142        -0.197322         0.153603
 C         3.989210         0.918169        -0.752195
 C         2.939390         0.493856        -1.731424
 O         1.620079         0.744364        -1.283068
 O         2.304717         0.141716         0.845763
 H        -0.333852        -0.481983         1.100052
 H        -0.207159         1.123670         0.728536
 H        -0.947909        -0.064993        -0.430149
 H         1.795795        -2.157598         0.258638
 H         1.173854        -2.135872        -1.293931
 H         3.913455        -1.934880        -1.316227
 H         4.152945        -0.724847         0.903081
 H         3.940757         1.987872        -0.537118
 H         5.049629         0.721990        -1.119852
 H         2.883469         0.650496        -2.777886
