19
Iteration:  4249charge 0 multiplicity 1
 C        -0.081657         0.145642         0.293015
 C         1.311405        -0.110964        -0.221086
 C         1.731841        -1.558889        -0.825522
 C         3.149164        -1.087118        -0.895499
 C         3.543973        -0.182350         0.250767
 C         3.986508         0.995098        -0.788006
 C         2.966923         0.445107        -1.680605
 O         1.584197         0.721468        -1.327123
 O         2.279556         0.224938         0.788321
 H        -0.432125        -0.655389         0.980213
 H        -0.155951         1.081482         0.838544
 H        -0.836632         0.285196        -0.479110
 H         1.677093        -2.626492        -0.152812
 H         1.265067        -1.881727        -1.759873
 H         3.811792        -1.666652        -1.546388
 H         4.136137        -0.584920         1.107507
 H         3.932077         2.012874        -0.441831
 H         4.990527         0.881769        -1.184742
 H         3.100278         0.518510        -2.800440
