19
Iteration:  1270
 C        -0.074594         0.213884         0.374632
 C         1.281814        -0.138707        -0.227047
 C         1.717411        -1.459681        -0.778043
 C         3.118070        -0.969310        -1.119936
 C         3.617887        -0.197801         0.220170
 C         4.009085         0.981322        -0.738364
 C         2.919461         0.431652        -1.761315
 O         1.534246         0.728258        -1.284329
 O         2.327741        -0.001940         0.847125
 H        -0.518936        -0.473662         1.133330
 H        -0.037593         1.140012         0.991313
 H        -0.778489         0.238505        -0.374292
 H         1.646413        -2.292946        -0.080042
 H         1.137111        -1.729892        -1.643006
 H         3.737391        -1.730302        -1.659194
 H         4.421644        -0.585469         0.851973
 H         3.970394         2.103970        -0.457408
 H         5.091073         0.962699        -1.100354
 H         3.073996         0.665289        -2.772040
