19
Iteration:   178
 C        -0.052618         0.020445         0.394445
 C         1.321631        -0.011316        -0.118118
 C         1.705994        -1.352069        -0.731978
 C         3.071134        -0.961241        -1.212534
 C         3.496342        -0.252012         0.127382
 C         4.014330         0.957067        -0.759807
 C         2.963695         0.430437        -1.822690
 O         1.591108         0.842389        -1.295640
 O         2.324000        -0.027685         0.896867
 H        -0.130364        -0.871691         1.087216
 H        -0.235342         0.994041         0.831936
 H        -0.822631        -0.016643        -0.327382
 H         1.916000        -2.048707         0.122230
 H         0.943969        -1.737351        -1.392999
 H         3.782599        -1.795079        -1.427047
 H         4.231451        -0.724688         0.864415
 H         4.001710         2.068333        -0.346480
 H         5.019339         0.803562        -1.173395
 H         3.010796         0.581491        -2.845285
