19
Iteration:  3063
 C        -0.093972         0.200507         0.269148
 C         1.283676        -0.085593        -0.294203
 C         1.782880        -1.544245        -0.731781
 C         3.152372        -1.051024        -0.982049
 C         3.562317        -0.093845         0.221609
 C         3.955453         0.956003        -0.749396
 C         2.933710         0.374762        -1.727821
 O         1.603791         0.765871        -1.303330
 O         2.289179         0.080811         0.828301
 H        -0.240612        -0.461995         1.132445
 H        -0.260970         1.153184         0.741754
 H        -1.035081         0.046504        -0.319645
 H         1.551655        -2.165403         0.112040
 H         1.212542        -1.905831        -1.542653
 H         3.847508        -1.862589        -1.333248
 H         4.388217        -0.607170         0.763181
 H         3.933852         2.005617        -0.474574
 H         4.938255         0.696268        -1.141821
 H         3.067144         0.737757        -2.868716
