19
Iteration:   891
 C         0.007827         0.163216         0.460112
 C         1.351241        -0.175306        -0.102836
 C         1.669179        -1.487317        -0.849448
 C         3.050533        -1.011831        -1.147512
 C         3.571166        -0.237717         0.126088
 C         3.938040         1.034639        -0.684170
 C         2.952161         0.449004        -1.690967
 O         1.551572         0.724800        -1.328644
 O         2.365967         0.088299         0.781840
 H        -0.405283        -0.706554         0.935811
 H        -0.065675         1.131722         1.003398
 H        -0.598240         0.392731        -0.355214
 H         1.695697        -2.324075        -0.119711
 H         0.935816        -1.505383        -1.618684
 H         3.778854        -1.636642        -1.675152
 H         4.226043        -0.596138         0.904859
 H         3.890681         1.989052        -0.230959
 H         5.057939         1.052310        -1.131764
 H         2.929099         0.633078        -2.764764
