19
Iteration:  3884charge 0 multiplicity 1
 C        -0.096832         0.142661         0.251774
 C         1.350213        -0.022854        -0.099915
 C         1.728629        -1.552044        -0.811835
 C         3.144280        -1.048236        -1.057914
 C         3.615733        -0.222298         0.234499
 C         3.877899         1.008086        -0.738287
 C         2.908349         0.345706        -1.685030
 O         1.632826         0.785597        -1.397898
 O         2.319469         0.112540         0.862209
 H        -0.448957        -0.305463         1.228972
 H        -0.259243         1.225994         0.485437
 H        -0.741015        -0.166960        -0.543850
 H         1.689163        -2.351740        -0.001897
 H         1.205614        -1.737709        -1.750310
 H         4.038896        -1.504022        -1.440078
 H         4.137621        -0.457329         1.177437
 H         3.503456         1.936450        -0.373545
 H         4.888261         1.029738        -1.032699
 H         3.020974         0.408294        -2.763880
