19
Iteration:  4389
 C        -0.002620         0.133066         0.325449
 C         1.322090        -0.118313        -0.187751
 C         1.675660        -1.523804        -0.789076
 C         3.085744        -1.077453        -1.074131
 C         3.541350        -0.084180         0.269793
 C         3.946438         0.959039        -0.683103
 C         3.033431         0.349623        -1.742693
 O         1.599594         0.703929        -1.380571
 O         2.274352         0.241544         0.844864
 H        -0.282588        -0.698056         1.076905
 H        -0.305191         1.175551         0.660514
 H        -0.539078         0.052187        -0.676021
 H         1.571519        -2.252875        -0.084727
 H         1.016470        -1.706019        -1.628114
 H         3.700070        -1.970782        -1.452365
 H         4.222274        -0.602593         0.987105
 H         3.698905         2.008966        -0.383994
 H         5.070163         1.097869        -0.937871
 H         3.246197         0.377041        -2.875816
