19
Iteration:  3287
 C        -0.096801         0.106368         0.250197
 C         1.296037        -0.055410        -0.227838
 C         1.702937        -1.515207        -0.725883
 C         3.147786        -1.099814        -1.074042
 C         3.618722        -0.173377         0.196260
 C         3.925133         0.964917        -0.735002
 C         2.942730         0.367351        -1.738820
 O         1.669465         0.775656        -1.315548
 O         2.289415         0.205685         0.869018
 H        -0.287941        -0.456876         1.178631
 H        -0.542636         1.075024         0.510093
 H        -0.920554        -0.347512        -0.402177
 H         1.507690        -2.210999         0.094905
 H         0.960390        -1.833932        -1.477933
 H         3.851499        -1.902033        -1.327519
 H         4.359110        -0.287542         0.993873
 H         3.705164         1.954021        -0.397447
 H         4.971897         0.906873        -0.978660
 H         3.227004         0.529108        -2.854849
