19
Iteration:  4427charge 0 multiplicity 1
 C        -0.121281         0.216288         0.255292
 C         1.290988        -0.146831        -0.241045
 C         1.814264        -1.578656        -0.675911
 C         3.176100        -1.056271        -0.998687
 C         3.514547        -0.153685         0.234299
 C         4.006464         0.931870        -0.784014
 C         2.964360         0.355470        -1.757781
 O         1.542460         0.877502        -1.342314
 O         2.274641         0.122599         0.864117
 H        -0.654971        -0.580336         0.682884
 H        -0.177595         1.118054         0.831515
 H        -0.644313         0.279407        -0.686831
 H         2.109036        -2.319432         0.272411
 H         1.296450        -2.105606        -1.548980
 H         3.893793        -1.694048        -1.486441
 H         4.239623        -0.277706         1.044709
 H         3.749022         1.866633        -0.317972
 H         4.921127         0.636616        -1.198831
 H         3.052327         0.522241        -2.790930
