19
Iteration:   960charge 0 multiplicity 1
 C        -0.080142         0.090245         0.373503
 C         1.333447        -0.089342        -0.078400
 C         1.718815        -1.466250        -0.851477
 C         3.076899        -0.973064        -1.217702
 C         3.561699        -0.216991         0.181628
 C         3.940988         0.923369        -0.773293
 C         2.878093         0.430896        -1.730778
 O         1.586873         0.763593        -1.291119
 O         2.395368         0.125126         0.974499
 H        -0.302119        -0.530505         1.124350
 H        -0.038493         1.117376         0.456779
 H        -0.759579        -0.088987        -0.510467
 H         1.808396        -2.353768        -0.241952
 H         1.002847        -1.458078        -1.695615
 H         3.792156        -1.750338        -1.496371
 H         4.332900        -0.743452         0.738620
 H         4.013381         2.022884        -0.435305
 H         4.899005         0.724215        -1.332676
 H         2.984300         0.717331        -2.837328
