19
Iteration:  3575
 C        -0.177403         0.123106         0.325920
 C         1.294900        -0.165742        -0.227749
 C         1.769702        -1.598415        -0.742927
 C         3.157697        -0.999889        -1.043433
 C         3.548332        -0.185983         0.240733
 C         4.061829         0.992021        -0.748456
 C         2.988414         0.439674        -1.745451
 O         1.601990         0.773976        -1.330670
 O         2.241224         0.203101         0.800903
 H        -0.462166        -0.477398         1.238283
 H        -0.072797         1.175509         0.728677
 H        -0.907086        -0.014650        -0.469805
 H         1.577739        -2.383561         0.039755
 H         1.073028        -1.688081        -1.650696
 H         3.965383        -1.773669        -1.256385
 H         4.203615        -0.619343         1.042490
 H         3.898877         2.036271        -0.493072
 H         5.012909         0.729383        -1.074486
 H         3.103979         0.390865        -2.800237
