19
Iteration:  3587
 C        -0.076126         0.140526         0.298177
 C         1.280726        -0.150249        -0.247601
 C         1.703916        -1.541896        -0.791553
 C         3.112237        -1.090447        -1.033953
 C         3.583389        -0.050806         0.258619
 C         4.054067         0.988230        -0.700900
 C         2.971163         0.327849        -1.666553
 O         1.549182         0.731549        -1.324074
 O         2.281473         0.210686         0.781304
 H        -0.318982        -0.661859         0.994742
 H        -0.136509         1.138896         0.744944
 H        -0.859259         0.185055        -0.475119
 H         1.732702        -2.443911        -0.081456
 H         1.185049        -1.942106        -1.750877
 H         3.853743        -1.664662        -1.604251
 H         4.246642        -0.521908         1.033411
 H         3.960546         1.993537        -0.338052
 H         5.065039         0.952689        -1.049775
 H         3.031894         0.672974        -2.649012
