19
Iteration:  3315
 C        -0.068833         0.151126         0.227526
 C         1.288175        -0.085508        -0.193010
 C         1.731519        -1.557465        -0.749129
 C         3.120322        -0.979489        -1.017946
 C         3.590673        -0.205859         0.233343
 C         4.058628         0.992855        -0.772066
 C         2.883556         0.424855        -1.722213
 O         1.569208         0.718500        -1.302581
 O         2.274016         0.151330         0.837654
 H        -0.295641        -0.136813         1.265322
 H        -0.491682         1.188768         0.203121
 H        -0.680965        -0.427558        -0.417351
 H         1.644837        -2.327742         0.048996
 H         1.073482        -1.801107        -1.633861
 H         3.959443        -1.798722        -1.085236
 H         4.346747        -0.569828         0.980718
 H         3.937116         2.112806        -0.562312
 H         5.102180         0.699104        -1.103108
 H         3.267684         0.521282        -2.799786
