19
Iteration:  2352charge 0 multiplicity 1
 C        -0.086076         0.123199         0.343772
 C         1.306047        -0.157099        -0.259568
 C         1.654780        -1.518854        -0.782559
 C         3.109775        -1.036899        -0.955648
 C         3.663144        -0.158310         0.237390
 C         4.021245         0.941561        -0.738396
 C         2.923475         0.374444        -1.648955
 O         1.508651         0.805518        -1.406164
 O         2.360612         0.190702         0.828847
 H        -0.373525        -0.595226         1.173541
 H        -0.154807         1.207541         0.599027
 H        -0.810769        -0.154340        -0.569204
 H         1.466348        -2.452957        -0.312001
 H         1.298043        -1.672513        -1.768669
 H         3.928520        -1.565560        -1.486149
 H         4.274949        -0.517278         1.093866
 H         3.989712         1.939265        -0.312322
 H         5.017728         0.907390        -1.285643
 H         2.952485         0.412844        -2.710408
