19
Iteration:  3353
 C        -0.113469         0.238360         0.356117
 C         1.341061        -0.112676        -0.238850
 C         1.765967        -1.497493        -0.772916
 C         3.176780        -1.037961        -0.976689
 C         3.537771        -0.187578         0.221105
 C         3.935100         0.988976        -0.726377
 C         3.018862         0.347131        -1.772347
 O         1.587470         0.758917        -1.381260
 O         2.243490         0.110434         0.831835
 H        -0.112104        -0.412533         1.247857
 H        -0.363624         1.285242         0.470383
 H        -0.784602        -0.392830        -0.318559
 H         1.771450        -2.203619         0.049827
 H         1.120671        -1.880208        -1.534009
 H         3.942549        -1.590554        -1.367155
 H         4.178480        -0.667772         0.945957
 H         3.655989         1.896488        -0.272052
 H         4.903756         1.097159        -1.135364
 H         3.053795         0.357351        -2.844545
