19
Iteration:  1094
 C        -0.077121         0.141976         0.302353
 C         1.299889        -0.071692        -0.173472
 C         1.658510        -1.475027        -0.792695
 C         3.086611        -1.031421        -1.118074
 C         3.667356        -0.131497         0.193834
 C         4.022497         0.971981        -0.733334
 C         2.860440         0.441464        -1.691185
 O         1.525711         0.749624        -1.286352
 O         2.415426         0.047449         0.838746
 H        -0.098340        -0.847935         0.882460
 H        -0.266445         0.913968         1.079307
 H        -0.831067         0.142777        -0.387988
 H         1.539576        -2.282133        -0.039268
 H         0.932082        -1.647865        -1.603586
 H         3.667833        -1.704636        -1.718739
 H         4.419784        -0.586661         0.912727
 H         3.975966         2.091207        -0.295079
 H         5.057584         0.672835        -1.212124
 H         2.935119         0.609131        -2.768814
