19
Iteration:  3590
 C        -0.044638         0.134849         0.295118
 C         1.246159        -0.109759        -0.236132
 C         1.697556        -1.507901        -0.803244
 C         3.131220        -1.078045        -1.036363
 C         3.578659        -0.073894         0.242592
 C         4.016473         0.973998        -0.685158
 C         2.945474         0.329972        -1.657831
 O         1.558099         0.698645        -1.318960
 O         2.298226         0.202948         0.782038
 H        -0.268774        -0.673892         0.915045
 H        -0.077070         1.085366         0.736724
 H        -0.770575         0.193790        -0.533767
 H         1.674032        -2.418528        -0.112088
 H         1.231978        -2.018933        -1.679272
 H         3.792545        -1.654118        -1.606654
 H         4.219063        -0.359026         1.146598
 H         3.975719         2.030415        -0.373088
 H         5.112546         0.992317        -1.060714
 H         3.160645         0.628152        -2.733737
