19
Iteration:  1397
 C        -0.110135         0.206085         0.298827
 C         1.362266        -0.137767        -0.216963
 C         1.679526        -1.391165        -0.795689
 C         3.224313        -1.065925        -1.102155
 C         3.656536        -0.203266         0.175524
 C         3.850689         0.995770        -0.728724
 C         2.848328         0.361513        -1.648863
 O         1.554508         0.816167        -1.251465
 O         2.365846        -0.004071         0.836112
 H        -0.158184        -0.380745         1.292921
 H        -0.042701         1.343017         0.366050
 H        -0.900049        -0.106596        -0.402522
 H         1.585777        -2.261347        -0.112159
 H         1.220649        -1.514786        -1.816040
 H         3.839741        -1.823731        -1.545628
 H         4.454187        -0.615813         0.862013
 H         3.814833         2.019482        -0.348747
 H         4.901420         0.903192        -1.107359
 H         3.025637         0.519264        -2.786407
