19
Iteration:  1534charge 0 multiplicity 1
 C        -0.038900         0.244176         0.310126
 C         1.292059        -0.087303        -0.168594
 C         1.739446        -1.569044        -0.780976
 C         3.148445        -1.027191        -1.103307
 C         3.615239        -0.267852         0.125687
 C         3.906314         0.962180        -0.690276
 C         2.885651         0.494463        -1.744335
 O         1.603326         0.721962        -1.242943
 O         2.325663         0.099301         0.823804
 H        -0.372659        -0.326384         1.226082
 H        -0.106335         1.321041         0.573192
 H        -0.975015         0.070128        -0.378903
 H         1.670474        -2.388475        -0.081526
 H         1.078852        -1.796677        -1.655840
 H         3.812261        -1.627620        -1.737155
 H         4.417855        -0.647640         0.763693
 H         3.745259         1.872876        -0.117402
 H         4.934599         1.041829        -0.910443
 H         2.961282         0.605805        -2.818714
