19
Iteration:  1807
 C        -0.037651         0.193084         0.377974
 C         1.312411        -0.054458        -0.288928
 C         1.786724        -1.510759        -0.705176
 C         3.139804        -1.033470        -1.096135
 C         3.544988        -0.260725         0.192312
 C         3.939268         0.952130        -0.680528
 C         2.918057         0.389266        -1.675165
 O         1.531135         0.850085        -1.428669
 O         2.315516         0.061879         0.831929
 H        -0.221918        -0.563086         1.101643
 H        -0.038162         1.127757         0.983690
 H        -1.035559         0.227600        -0.330463
 H         2.010488        -2.093518         0.267574
 H         1.262487        -2.144889        -1.559039
 H         3.853430        -1.505297        -1.699873
 H         4.246624        -0.615018         0.970163
 H         3.648849         1.979112        -0.306217
 H         5.026545         0.785545        -1.108664
 H         3.061250         0.373049        -2.734277
