19
Iteration:  1027charge 0 multiplicity 1
 C        -0.005052         0.166497         0.415066
 C         1.367600        -0.103115        -0.118465
 C         1.739425        -1.399420        -0.825267
 C         3.135598        -1.001315        -1.072017
 C         3.601118        -0.210183         0.162654
 C         3.989464         0.957959        -0.705322
 C         2.806941         0.401844        -1.792164
 O         1.501301         0.771240        -1.380098
 O         2.318044         0.009888         0.890148
 H        -0.171190        -0.482853         1.241267
 H        -0.121494         1.200589         0.610043
 H        -0.840076        -0.141591        -0.210361
 H         1.570985        -2.310535        -0.263652
 H         1.324231        -1.354733        -1.864765
 H         3.943462        -1.634318        -1.467558
 H         4.284485        -0.655078         0.925028
 H         3.911968         2.054116        -0.248072
 H         4.981926         0.710583        -1.237789
 H         2.987903         0.626998        -2.881311
