19
Iteration:  2677
 C        -0.083002         0.122176         0.331463
 C         1.273087        -0.136335        -0.166714
 C         1.726269        -1.575162        -0.676780
 C         3.104322        -1.041384        -1.064349
 C         3.564715        -0.185661         0.191858
 C         3.959832         0.965258        -0.715987
 C         3.005569         0.506230        -1.761212
 O         1.619015         0.772446        -1.403628
 O         2.264540         0.149709         0.844391
 H        -0.062091        -0.111372         1.416147
 H         0.080216         1.201932         0.206710
 H        -0.884347        -0.183504        -0.387796
 H         1.710134        -2.278418         0.040579
 H         1.167894        -1.810605        -1.591608
 H         3.821794        -1.798944        -1.315447
 H         4.228719        -0.731865         0.904760
 H         3.796405         2.009859        -0.409965
 H         4.934610         0.814780        -1.144458
 H         3.064196         0.535274        -2.895638
