19
Iteration:   345
 C         0.012128         0.120057         0.401872
 C         1.371237        -0.124536        -0.147419
 C         1.657916        -1.433918        -0.757835
 C         3.054298        -0.993748        -1.198743
 C         3.586837        -0.255317         0.105542
 C         3.912693         0.992961        -0.633392
 C         2.911773         0.403412        -1.795409
 O         1.554424         0.743918        -1.314419
 O         2.401120         0.126353         0.864217
 H        -0.338174        -0.729458         1.035543
 H         0.105164         1.084287         0.958533
 H        -0.712804         0.307275        -0.482241
 H         1.866915        -2.354884        -0.127309
 H         0.843686        -1.588541        -1.574989
 H         3.631496        -1.764835        -1.679278
 H         4.214824        -0.768771         0.842272
 H         3.686549         1.857809        -0.024846
 H         4.977515         1.189113        -1.086066
 H         2.962874         0.597784        -2.818848
