19
Iteration:  3078charge 0 multiplicity 1
 C        -0.061803         0.210022         0.289562
 C         1.283560        -0.153148        -0.214692
 C         1.688790        -1.512442        -0.742636
 C         3.144038        -1.042692        -1.052371
 C         3.601749        -0.171902         0.277016
 C         4.007248         1.010272        -0.786679
 C         2.931031         0.381599        -1.701156
 O         1.568470         0.748861        -1.332396
 O         2.274628         0.088243         0.837911
 H        -0.377789        -0.174360         1.310072
 H        -0.078405         1.335380         0.364760
 H        -0.658643        -0.137187        -0.552583
 H         1.776990        -2.377229        -0.067635
 H         1.240017        -1.856281        -1.710114
 H         3.965729        -1.484750        -1.560802
 H         4.150751        -0.251083         1.197036
 H         3.862285         2.053818        -0.451035
 H         5.012435         0.853347        -1.163639
 H         3.084170         0.242084        -2.745577
