19
Iteration:  2383
 C        -0.120596         0.111202         0.314631
 C         1.273248        -0.054551        -0.215227
 C         1.742142        -1.523748        -0.602538
 C         3.126453        -0.990804        -1.166591
 C         3.470020        -0.249037         0.164730
 C         3.989617         0.922274        -0.722626
 C         2.982332         0.402660        -1.766335
 O         1.635548         0.770163        -1.358028
 O         2.308394         0.204732         0.880726
 H        -0.344301        -0.755632         0.806538
 H        -0.278793         1.010858         0.741353
 H        -0.910446         0.043946        -0.406700
 H         1.960533        -2.225591         0.199182
 H         1.210682        -1.953712        -1.387969
 H         3.963850        -1.671757        -1.434101
 H         4.273381        -0.683328         0.763960
 H         3.881377         1.929831        -0.329490
 H         5.083201         0.904419        -1.029137
 H         3.103068         0.653343        -2.825192
