19
Iteration:  2933charge 0 multiplicity 1
 C        -0.065894         0.136913         0.308021
 C         1.259175        -0.106689        -0.272602
 C         1.680302        -1.493805        -0.754084
 C         3.173440        -1.039531        -1.084480
 C         3.550885        -0.226697         0.233320
 C         3.964308         0.984063        -0.700479
 C         2.956496         0.427157        -1.723089
 O         1.607261         0.703722        -1.354168
 O         2.335167         0.196264         0.872314
 H        -0.181019        -0.288496         1.322352
 H        -0.392455         1.186228         0.320386
 H        -0.884276        -0.312115        -0.341994
 H         1.645012        -2.267385         0.039703
 H         1.162235        -1.738368        -1.651850
 H         3.805476        -2.025266        -1.218871
 H         4.338898        -0.502831         0.949356
 H         3.759912         1.929168        -0.187563
 H         4.901898         0.973952        -1.285443
 H         3.149574         0.730897        -2.782105
