19
Iteration:  1101
 C        -0.055300         0.121972         0.377074
 C         1.294406        -0.102831        -0.200557
 C         1.625610        -1.454712        -0.810246
 C         3.110988        -1.024985        -1.065273
 C         3.661301        -0.184700         0.154310
 C         4.079569         1.053584        -0.731002
 C         2.844639         0.420014        -1.683415
 O         1.538566         0.748549        -1.282008
 O         2.394668         0.051261         0.801901
 H        -0.339164        -0.788516         0.854023
 H        -0.128013         1.043417         0.931428
 H        -1.018271         0.127707        -0.387499
 H         1.583409        -2.284211        -0.132241
 H         1.001807        -1.521800        -1.738104
 H         3.735621        -1.779649        -1.604771
 H         4.292251        -0.466593         0.985579
 H         3.999184         2.067551        -0.279512
 H         5.105146         0.724996        -1.069783
 H         2.712799         0.402189        -2.831401
