19
Iteration:  3632charge 0 multiplicity 1
 C        -0.142056         0.180983         0.311690
 C         1.347831        -0.147724        -0.231856
 C         1.737330        -1.554460        -0.708834
 C         3.120096        -1.014239        -1.083369
 C         3.550927        -0.145502         0.217996
 C         3.927322         1.042437        -0.733691
 C         3.030014         0.367030        -1.753874
 O         1.653881         0.746479        -1.356803
 O         2.269458         0.100462         0.857827
 H        -0.533089        -0.624665         0.882486
 H        -0.280799         1.111800         0.836758
 H        -0.874943         0.310936        -0.542478
 H         1.792413        -2.099671         0.318833
 H         1.085291        -2.056948        -1.519585
 H         3.778392        -1.724246        -1.508485
 H         4.397848        -0.302746         0.956311
 H         3.665722         2.057135        -0.408295
 H         5.026063         1.014777        -0.908202
 H         2.922788         0.280001        -2.808059
