19
Iteration:  4186charge 0 multiplicity 1
 C        -0.092922         0.181396         0.255337
 C         1.315108        -0.198824        -0.196239
 C         1.748536        -1.473985        -0.736494
 C         3.103018        -1.025762        -0.979819
 C         3.591700        -0.146748         0.241701
 C         3.965903         1.006495        -0.753071
 C         2.985461         0.368220        -1.707926
 O         1.557055         0.738748        -1.310939
 O         2.295446         0.133735         0.769278
 H        -0.481908        -0.506499         1.020112
 H         0.003280         1.159600         0.724571
 H        -0.663064         0.085349        -0.634752
 H         1.524843        -2.346057        -0.091878
 H         1.055626        -1.901908        -1.562496
 H         3.706241        -1.606986        -1.707937
 H         4.343897        -0.215947         1.062864
 H         3.902070         2.060057        -0.418735
 H         5.045867         0.752445        -0.866219
 H         3.127003         0.292194        -2.804973
