19
Iteration:  3715charge 0 multiplicity 1
 C        -0.047325         0.111649         0.273443
 C         1.308284        -0.111340        -0.243326
 C         1.736417        -1.542653        -0.715700
 C         3.136467        -1.018267        -1.082400
 C         3.532275        -0.187060         0.273332
 C         3.922915         0.958691        -0.688207
 C         2.924274         0.363008        -1.674134
 O         1.629912         0.853090        -1.391197
 O         2.307379         0.142152         0.792579
 H        -0.142617        -0.251849         1.315628
 H        -0.357188         1.162263         0.493691
 H        -0.761125        -0.564650        -0.252830
 H         1.567623        -2.212699         0.052193
 H         1.205294        -1.874038        -1.583371
 H         3.971335        -1.630906        -1.472058
 H         4.277155        -0.416140         0.983940
 H         3.618194         1.976787        -0.327519
 H         4.969029         0.910669        -1.050122
 H         3.103514         0.353908        -2.767495
