19
Iteration:   181
 C        -0.065750         0.010264         0.418101
 C         1.322567        -0.029255        -0.137233
 C         1.670068        -1.362169        -0.742710
 C         3.073399        -0.972908        -1.212548
 C         3.538246        -0.239784         0.154131
 C         3.989814         0.963619        -0.755879
 C         2.977145         0.438341        -1.822395
 O         1.606034         0.857218        -1.299218
 O         2.351046        -0.036734         0.892608
 H        -0.231816        -0.823560         1.124361
 H        -0.263953         1.075991         0.774582
 H        -0.947554        -0.035075        -0.374715
 H         1.838844        -2.059068         0.155984
 H         0.872122        -1.717109        -1.472568
 H         3.751195        -1.773036        -1.428503
 H         4.262243        -0.594848         0.923452
 H         3.948755         1.953809        -0.414330
 H         5.006746         0.890536        -1.154990
 H         2.993666         0.520381        -2.910818
