19
Iteration:  1526
 C        -0.031152         0.266426         0.287203
 C         1.371296        -0.171679        -0.212796
 C         1.704425        -1.524675        -0.735837
 C         3.112275        -1.048812        -1.120099
 C         3.611960        -0.260269         0.160027
 C         3.943467         1.012361        -0.698345
 C         2.875368         0.470677        -1.676415
 O         1.546716         0.795124        -1.227695
 O         2.318359         0.032406         0.769073
 H        -0.222865        -0.270125         1.141048
 H        -0.062583         1.288072         0.602697
 H        -0.717065         0.053049        -0.476170
 H         1.805915        -2.280467         0.090746
 H         1.148073        -2.029655        -1.557348
 H         3.844976        -1.633396        -1.631420
 H         4.320975        -0.605719         0.963513
 H         3.563712         1.933001        -0.261194
 H         4.907411         0.916801        -1.279379
 H         3.123218         0.718198        -2.763075
