19
Iteration:  2923charge 0 multiplicity 1
 C        -0.084555         0.102611         0.290573
 C         1.353770        -0.121861        -0.204662
 C         1.696018        -1.449303        -0.715358
 C         3.104200        -1.022156        -1.001564
 C         3.540393        -0.190113         0.157154
 C         4.013763         0.984783        -0.724507
 C         2.972853         0.430753        -1.746716
 O         1.623778         0.722733        -1.330641
 O         2.212066         0.154529         0.812814
 H         0.071366        -0.204757         1.352108
 H        -0.098516         1.190564         0.340743
 H        -0.953584        -0.459974        -0.191399
 H         1.835538        -2.301707         0.015766
 H         1.130915        -1.849512        -1.554931
 H         3.829151        -1.765155        -1.586204
 H         4.092049        -0.709809         0.947381
 H         3.915144         2.018659        -0.320417
 H         5.091028         0.869805        -1.040037
 H         3.157777         0.623236        -2.803719
