19
Iteration:  4101
 C        -0.129005         0.116648         0.243458
 C         1.313502        -0.082420        -0.118001
 C         1.796848        -1.506293        -0.787255
 C         3.129833        -0.985264        -1.045574
 C         3.570571        -0.179069         0.269147
 C         3.965178         0.946284        -0.750283
 C         2.937511         0.330600        -1.758074
 O         1.570973         0.746421        -1.315463
 O         2.300343         0.148983         0.838479
 H        -0.491044        -0.222407         1.277577
 H        -0.253075         1.278624         0.188487
 H        -0.908586        -0.176126        -0.521532
 H         1.967653        -2.175107         0.039752
 H         1.045496        -1.456619        -1.570930
 H         3.920584        -1.588086        -1.591714
 H         4.313623        -0.610353         0.962928
 H         3.891610         2.033673        -0.415871
 H         5.037120         0.619692        -1.037976
 H         3.127467         0.542889        -2.801853
