19
Iteration:  4771
 C        -0.088256         0.163223         0.189723
 C         1.388193        -0.132655        -0.204485
 C         1.735331        -1.539564        -0.767387
 C         3.153643        -1.063236        -0.947148
 C         3.578446        -0.065129         0.238714
 C         4.021186         1.015636        -0.835559
 C         2.911399         0.341185        -1.675162
 O         1.542539         0.727144        -1.313272
 O         2.223765         0.129014         0.896805
 H        -0.352564        -0.185139         1.175936
 H        -0.066716         1.256933         0.350518
 H        -0.638047        -0.114542        -0.672642
 H         1.664678        -2.320951         0.062024
 H         0.920864        -1.932600        -1.714421
 H         3.887682        -1.559904        -1.627686
 H         4.294049        -0.423870         0.995331
 H         4.161458         2.015802        -0.356446
 H         5.018136         0.781905        -1.244515
 H         3.051845         0.410467        -2.747770
