19
Iteration:  1912
 C        -0.047528         0.207070         0.387384
 C         1.367063        -0.151732        -0.206687
 C         1.728638        -1.422870        -0.791002
 C         3.161545        -1.025176        -1.064462
 C         3.569288        -0.265819         0.179011
 C         3.975795         0.969946        -0.629258
 C         2.884593         0.369210        -1.689764
 O         1.504873         0.683985        -1.400716
 O         2.304760         0.183590         0.810550
 H        -0.223910        -0.293564         1.436115
 H        -0.025132         1.376356         0.421067
 H        -0.797236        -0.107860        -0.302505
 H         1.821122        -2.346682        -0.240339
 H         1.245424        -1.448177        -1.780922
 H         3.953932        -1.607823        -1.497504
 H         4.237527        -0.803470         0.860891
 H         3.852360         1.988413        -0.209769
 H         4.905191         0.906593        -1.126548
 H         3.005837         0.545810        -2.805617
