19
Iteration:    96
 C         0.049895         0.172523         0.443438
 C         1.308069        -0.098852        -0.223294
 C         1.733741        -1.520214        -0.704492
 C         3.074762        -1.042001        -1.241193
 C         3.498852        -0.208422         0.133770
 C         3.913679         1.046092        -0.688771
 C         2.979442         0.444417        -1.789222
 O         1.587843         0.852161        -1.245191
 O         2.273226        -0.059821         0.824824
 H        -0.149714        -0.490473         1.236656
 H         0.197519         1.195267         0.879257
 H        -0.666482         0.127008        -0.463391
 H         1.764305        -2.087598         0.205367
 H         1.117895        -2.070928        -1.473891
 H         3.708277        -1.737784        -1.761199
 H         4.301100        -0.521812         0.782202
 H         3.675482         2.052352        -0.473107
 H         5.093670         0.937084        -0.860439
 H         3.081267         0.655209        -2.973436
