19
Iteration:  3805charge 0 multiplicity 1
 C        -0.058400         0.121619         0.346379
 C         1.310898        -0.135408        -0.213110
 C         1.715107        -1.450716        -0.751551
 C         3.079540        -0.993336        -1.099855
 C         3.615010        -0.143972         0.249562
 C         3.941535         1.021608        -0.715154
 C         2.979996         0.355241        -1.671733
 O         1.642637         0.714063        -1.381986
 O         2.259785         0.164127         0.808432
 H        -0.375133        -0.878029         0.791738
 H        -0.276943         1.025901         1.014737
 H        -0.619368         0.027958        -0.735668
 H         1.532014        -2.279271        -0.068318
 H         1.076353        -1.884724        -1.581567
 H         3.741630        -1.806959        -1.355572
 H         4.082963        -0.609212         1.160419
 H         3.926869         2.060758        -0.418258
 H         4.970988         0.941538        -1.085768
 H         3.106713         0.318171        -2.745759
