19
Iteration:  4222charge 0 multiplicity 1
 C        -0.137972         0.109926         0.236600
 C         1.329529        -0.059082        -0.216702
 C         1.709554        -1.511507        -0.655761
 C         3.132654        -1.044030        -1.046858
 C         3.568350        -0.146649         0.232029
 C         3.919222         0.972505        -0.718996
 C         3.003997         0.365136        -1.791693
 O         1.606901         0.764087        -1.380901
 O         2.327689         0.125388         0.903694
 H        -0.535073        -0.744566         0.815556
 H        -0.219846         1.047910         0.862084
 H        -0.818409         0.375854        -0.639916
 H         1.941106        -2.140504         0.180218
 H         1.106768        -1.886384        -1.546593
 H         3.748010        -1.681082        -1.702670
 H         4.261475        -0.527435         0.968111
 H         3.723388         2.064721        -0.456731
 H         5.017463         0.768973        -0.919891
 H         3.125912         0.516886        -2.851395
