19
Iteration:  3908charge 0 multiplicity 1
 C        -0.089102         0.152597         0.266686
 C         1.235385        -0.153747        -0.238875
 C         1.705621        -1.515527        -0.770002
 C         3.170577        -1.041561        -1.005579
 C         3.499987        -0.187778         0.199469
 C         4.015660         1.018724        -0.734012
 C         2.953417         0.452166        -1.724746
 O         1.608304         0.734259        -1.328661
 O         2.313223         0.110912         0.830297
 H        -0.111171        -0.149326         1.288716
 H        -0.069100         1.228468         0.435822
 H        -0.962896        -0.156485        -0.204992
 H         1.925361        -2.274173         0.062154
 H         1.257125        -1.934164        -1.676830
 H         3.923248        -1.829841        -1.305736
 H         4.115713        -0.390137         1.078866
 H         3.888713         1.990501        -0.262012
 H         5.012404         0.801550        -1.022541
 H         2.981368         0.751585        -2.804539
