19
Iteration:  4814charge 0 multiplicity 1
 C        -0.088726         0.125423         0.299597
 C         1.239502        -0.055203        -0.186668
 C         1.713526        -1.466672        -0.648272
 C         3.135519        -1.057856        -1.068961
 C         3.666952        -0.192946         0.168934
 C         4.014776         1.031596        -0.671942
 C         3.008073         0.327521        -1.754976
 O         1.612786         0.682474        -1.460573
 O         2.219304         0.204127         0.857342
 H        -0.349408        -0.764477         0.867629
 H        -0.358458         0.938674         1.017288
 H        -0.814085         0.264887        -0.479425
 H         1.605113        -2.162428         0.232772
 H         1.114092        -1.951329        -1.634614
 H         3.818401        -1.860631        -1.458459
 H         4.268172        -0.429152         1.060365
 H         3.534903         2.005433        -0.419954
 H         5.090345         1.060612        -0.881943
 H         3.111042         0.433788        -2.775263
