19
Iteration:  1091
 C        -0.080571         0.130856         0.315178
 C         1.321431        -0.068549        -0.174186
 C         1.674230        -1.475913        -0.769077
 C         3.072262        -1.024312        -1.138541
 C         3.653867        -0.141016         0.204817
 C         3.988404         0.940090        -0.743826
 C         2.880892         0.444587        -1.697480
 O         1.528134         0.762707        -1.287464
 O         2.409609         0.056163         0.859571
 H        -0.134581        -0.760009         0.926917
 H        -0.257846         0.851771         1.090733
 H        -0.845339         0.157334        -0.595162
 H         1.546856        -2.261222        -0.040306
 H         0.967710        -1.727309        -1.602093
 H         3.718038        -1.671556        -1.762788
 H         4.412614        -0.599408         0.839230
 H         3.984463         2.040746        -0.344255
 H         5.022233         0.730508        -1.287542
 H         3.063174         0.730954        -2.801444
