19
Iteration:  1834charge 0 multiplicity 1
 C        -0.134281         0.129960         0.317015
 C         1.379214        -0.192359        -0.144084
 C         1.641840        -1.466314        -0.804066
 C         3.132555        -1.093535        -1.043700
 C         3.535139        -0.180726         0.111117
 C         4.014612         0.985128        -0.785863
 C         2.926891         0.477217        -1.719121
 O         1.642801         0.717966        -1.277711
 O         2.311371         0.201844         0.899567
 H        -0.636196        -0.657474         1.030341
 H         0.004002         1.138861         0.802310
 H        -0.761601         0.209218        -0.626026
 H         1.599986        -2.316009        -0.169529
 H         1.194533        -1.748445        -1.676351
 H         3.859820        -1.879823        -1.465622
 H         4.313679        -0.404835         0.854415
 H         3.891958         1.945240        -0.330885
 H         4.944099         0.723408        -1.133101
 H         2.979560         0.623607        -2.870426
