19
Iteration:  3584charge 0 multiplicity 1
 C        -0.110294         0.144905         0.300439
 C         1.314215        -0.182106        -0.258161
 C         1.711728        -1.584344        -0.779453
 C         3.102767        -1.087411        -1.033466
 C         3.586664        -0.054237         0.274834
 C         4.077450         1.000899        -0.717775
 C         2.991173         0.339675        -1.671659
 O         1.548219         0.759193        -1.330325
 O         2.264424         0.215896         0.783025
 H        -0.390297        -0.646977         1.101958
 H        -0.165016         1.184603         0.784278
 H        -0.919712         0.145802        -0.437358
 H         1.756164        -2.378419        -0.072393
 H         1.174907        -1.789260        -1.724116
 H         3.916265        -1.704130        -1.564580
 H         4.239508        -0.634156         0.915636
 H         3.897233         2.016692        -0.302335
 H         5.075997         0.852541        -1.072928
 H         2.933466         0.686596        -2.714071
