19
Iteration:  1587
 C        -0.047573         0.068726         0.362545
 C         1.251980        -0.066410        -0.257424
 C         1.742852        -1.539369        -0.794126
 C         3.115703        -1.056708        -1.059473
 C         3.499618        -0.216959         0.190875
 C         4.021070         0.918942        -0.767700
 C         2.927607         0.412051        -1.766451
 O         1.628929         0.927126        -1.226499
 O         2.294210         0.146552         0.809507
 H        -0.053751        -0.745388         1.243161
 H        -0.200538         1.084127         0.846280
 H        -1.052466        -0.169820        -0.262201
 H         1.726062        -2.147293         0.081747
 H         1.151636        -1.959827        -1.612035
 H         3.917119        -1.748436        -1.431872
 H         4.190189        -0.743474         0.820734
 H         3.974144         1.972381        -0.435515
 H         5.022746         0.849186        -1.121441
 H         3.025157         0.457394        -2.822381
