19
Iteration:  1443charge 0 multiplicity 1
 C        -0.115784         0.091626         0.457693
 C         1.310676        -0.054999        -0.235173
 C         1.769732        -1.399707        -0.732621
 C         3.133517        -1.047926        -1.149269
 C         3.519672        -0.274570         0.148691
 C         3.981095         0.977034        -0.722561
 C         2.991059         0.466769        -1.737899
 O         1.597295         0.785256        -1.334375
 O         2.276413         0.061445         0.838935
 H        -0.308375        -0.862644         1.165677
 H        -0.181504         1.160060         0.936234
 H        -0.891456         0.009846        -0.341815
 H         1.787015        -2.050919         0.163829
 H         1.179668        -1.742664        -1.555780
 H         3.812259        -1.671251        -1.765365
 H         4.087255        -0.684510         0.988755
 H         4.168217         2.029374        -0.508772
 H         4.929811         0.755021        -1.154210
 H         2.964131         0.673955        -2.814106
