19
Iteration:  1117charge 0 multiplicity 1
 C        -0.060548         0.115903         0.459058
 C         1.282553        -0.158246        -0.133836
 C         1.730951        -1.498766        -0.852463
 C         3.120418        -1.005262        -1.088574
 C         3.568034        -0.195915         0.175113
 C         3.983393         0.955548        -0.782898
 C         2.968509         0.406638        -1.750154
 O         1.589331         0.822177        -1.269758
 O         2.284520         0.109335         0.792776
 H        -0.407855        -0.607009         1.277064
 H         0.032363         1.106636         0.984964
 H        -0.751546         0.236049        -0.294531
 H         1.474574        -2.352523        -0.165553
 H         1.204053        -1.642717        -1.804075
 H         3.869191        -1.631796        -1.543127
 H         4.256373        -0.809049         0.822726
 H         3.675116         2.013403        -0.344297
 H         5.020614         0.982933        -1.302606
 H         3.132019         0.622436        -2.777930
