19
Iteration:  4316charge 0 multiplicity 1
 C        -0.125305         0.168194         0.208543
 C         1.320608        -0.034313        -0.165530
 C         1.749895        -1.453758        -0.758736
 C         3.190060        -1.048058        -1.042551
 C         3.600707        -0.250698         0.215369
 C         3.934678         0.961287        -0.704053
 C         2.926484         0.304620        -1.726277
 O         1.583911         0.739576        -1.279603
 O         2.305824         0.164706         0.834777
 H        -0.328225        -0.135168         1.245684
 H        -0.273814         1.254587         0.012042
 H        -0.747343        -0.255043        -0.550533
 H         1.868669        -2.303652         0.179568
 H         1.229691        -1.735888        -1.730980
 H         3.753325        -1.810034        -1.594553
 H         4.246227        -0.555159         1.059993
 H         3.598486         1.972029        -0.444967
 H         4.964781         1.012569        -1.023802
 H         2.895492         0.580127        -2.816417
