19
Iteration:  4057charge 0 multiplicity 1
 C        -0.041851         0.139679         0.360826
 C         1.270707        -0.074619        -0.200604
 C         1.681453        -1.484292        -0.733635
 C         3.199570        -1.049177        -1.080675
 C         3.561286        -0.160884         0.269586
 C         3.936089         0.987464        -0.710712
 C         2.981779         0.329356        -1.738473
 O         1.599155         0.793463        -1.413162
 O         2.273124         0.102204         0.826900
 H        -0.374471        -0.739905         1.007232
 H        -0.302537         1.174059         0.686981
 H        -0.762317         0.176456        -0.474663
 H         1.679713        -2.161945         0.088454
 H         1.267147        -1.920148        -1.613198
 H         4.009013        -1.633683        -1.526358
 H         4.261856        -0.465177         1.042027
 H         3.655567         2.035969        -0.423412
 H         5.023150         0.943417        -1.065209
 H         3.123718         0.272424        -2.803647
