19
Iteration:  4388
 C        -0.009239         0.130479         0.332938
 C         1.322743        -0.113502        -0.185852
 C         1.684934        -1.530464        -0.789798
 C         3.077338        -1.080133        -1.073468
 C         3.549880        -0.089217         0.272891
 C         3.942990         0.960270        -0.680318
 C         3.024083         0.350497        -1.754078
 O         1.606150         0.710533        -1.384239
 O         2.269665         0.245146         0.845874
 H        -0.273225        -0.685068         1.088813
 H        -0.275546         1.167118         0.645912
 H        -0.539614         0.041804        -0.669943
 H         1.559971        -2.229645        -0.065724
 H         1.045689        -1.715993        -1.694069
 H         3.727121        -1.978384        -1.423101
 H         4.228460        -0.620571         0.970128
 H         3.678188         2.008133        -0.396204
 H         5.074763         1.066850        -0.910418
 H         3.254827         0.384806        -2.863165
