19
Iteration:   612
 C         0.058014         0.177271         0.442630
 C         1.345436        -0.096811        -0.272090
 C         1.647072        -1.558448        -0.771181
 C         3.083826        -0.985723        -1.085889
 C         3.571689        -0.287664         0.124201
 C         3.959438         0.980057        -0.707292
 C         2.827986         0.527465        -1.701408
 O         1.568623         0.861422        -1.289383
 O         2.348181        -0.016526         0.776480
 H         0.146116        -0.398536         1.301685
 H        -0.216887         1.218639         0.633845
 H        -0.823556        -0.149250        -0.211899
 H         1.696682        -2.286991         0.037954
 H         1.289043        -1.988659        -1.672385
 H         3.805483        -1.635828        -1.606645
 H         4.260187        -0.452206         0.932615
 H         3.969112         1.973333        -0.044248
 H         4.901392         0.755794        -1.223395
 H         2.985350         0.633375        -2.757190
