19
Iteration:  1616
 C        -0.123226         0.131112         0.275917
 C         1.289010        -0.119041        -0.100766
 C         1.687411        -1.453070        -0.779731
 C         3.096544        -1.034004        -1.101802
 C         3.605103        -0.189790         0.147934
 C         4.029226         0.978642        -0.715221
 C         2.898498         0.498934        -1.706762
 O         1.567882         0.705217        -1.328894
 O         2.394822         0.114359         0.875322
 H        -0.262254        -0.611577         1.013798
 H        -0.205781         1.102208         0.694520
 H        -0.654999        -0.013562        -0.600882
 H         1.650982        -2.236854         0.016678
 H         0.940381        -1.495176        -1.579641
 H         3.709614        -1.817371        -1.593863
 H         4.274562        -0.747544         0.817265
 H         4.038749         1.967935        -0.186497
 H         5.020378         0.658392        -1.191206
 H         2.902519         0.590289        -2.829578
