19
Iteration:  4566charge 0 multiplicity 1
 C        -0.088770         0.137726         0.237818
 C         1.322510        -0.111745        -0.182387
 C         1.717846        -1.469231        -0.746887
 C         3.084985        -1.040507        -1.021578
 C         3.582235        -0.113856         0.202427
 C         3.936668         1.021100        -0.718730
 C         2.998649         0.286471        -1.719051
 O         1.687357         0.735228        -1.338083
 O         2.235307         0.130481         0.835234
 H        -0.265571        -0.432579         1.205559
 H        -0.408071         1.228011         0.437266
 H        -0.842361        -0.405055        -0.415715
 H         1.731730        -2.158262         0.056485
 H         0.986137        -1.723644        -1.394359
 H         3.778199        -1.721734        -1.472237
 H         4.358360        -0.529087         0.873762
 H         3.522218         2.054258        -0.505619
 H         5.039279         1.052762        -1.015259
 H         3.297124         0.525045        -2.808934
