19
Iteration:  2186
 C        -0.066059         0.243650         0.287913
 C         1.293208        -0.137645        -0.184720
 C         1.780608        -1.623261        -0.744805
 C         3.099758        -1.080481        -1.160606
 C         3.625002        -0.187393         0.221028
 C         3.921692         0.945166        -0.679463
 C         2.904041         0.420126        -1.693452
 O         1.588128         0.784821        -1.270811
 O         2.295073         0.167212         0.769066
 H        -0.633288        -0.427348         0.988532
 H         0.069030         1.262048         0.733315
 H        -0.654151         0.295867        -0.768203
 H         1.769680        -2.262536         0.119496
 H         1.181108        -2.154555        -1.428909
 H         3.924781        -1.687766        -1.561255
 H         4.252388        -0.498218         1.069462
 H         3.844397         1.951405        -0.279157
 H         4.950763         0.998576        -1.070317
 H         3.069558         0.588638        -2.791398
