19
Iteration:  2068charge 0 multiplicity 1
 C        -0.099931         0.227502         0.271244
 C         1.335246        -0.110786        -0.174399
 C         1.755746        -1.495583        -0.778470
 C         3.164484        -1.028504        -1.135554
 C         3.597401        -0.237633         0.255988
 C         3.928315         0.931266        -0.739689
 C         2.902451         0.349314        -1.678236
 O         1.573219         0.768669        -1.238876
 O         2.357830         0.126571         0.813029
 H        -0.666632        -0.210783         1.066244
 H        -0.302217         1.266431         0.531450
 H        -0.825800         0.034988        -0.652294
 H         1.711303        -2.452093        -0.147561
 H         1.129018        -1.674674        -1.748346
 H         3.880537        -1.662803        -1.694557
 H         4.328207        -0.561834         1.011114
 H         3.614784         1.891681        -0.385497
 H         4.943958         1.088532        -1.156669
 H         2.898195         0.587859        -2.719025
