19
Iteration:   717
 C        -0.105482         0.115071         0.464818
 C         1.342241        -0.174920        -0.134091
 C         1.706607        -1.444932        -0.805879
 C         3.068190        -0.984831        -1.224647
 C         3.603122        -0.233509         0.118612
 C         4.050153         0.957632        -0.719455
 C         2.928558         0.470943        -1.738754
 O         1.589629         0.762272        -1.288284
 O         2.285175         0.132390         0.862336
 H        -0.680678        -0.618439         1.130532
 H         0.040606         1.063724         1.023418
 H        -0.759456         0.096860        -0.363165
 H         1.802025        -2.328622        -0.131763
 H         0.948261        -1.712322        -1.571571
 H         3.657273        -1.745212        -1.775775
 H         4.288379        -0.720750         0.821975
 H         3.990304         1.885710        -0.311707
 H         5.016601         0.742168        -1.184388
 H         3.185520         0.820677        -2.812816
