19
Iteration:  2574
 C        -0.025477         0.220321         0.298216
 C         1.310492        -0.141294        -0.132830
 C         1.701440        -1.513867        -0.786888
 C         3.113333        -1.035001        -1.059966
 C         3.621524        -0.141886         0.253754
 C         3.954184         1.006857        -0.683718
 C         2.926783         0.381785        -1.679220
 O         1.546789         0.636230        -1.379882
 O         2.319743         0.189075         0.749565
 H        -0.370098        -0.590977         0.942540
 H         0.054224         1.128045         0.934031
 H        -0.604125         0.169996        -0.589037
 H         1.671747        -2.302587         0.010581
 H         0.999760        -1.689796        -1.563936
 H         3.734549        -1.718954        -1.650191
 H         4.124963        -0.569140         1.091898
 H         3.856297         2.017573        -0.289538
 H         4.969576         0.839159        -1.070109
 H         3.077315         0.449872        -2.711504
