19
Iteration:  3307charge 0 multiplicity 1
 C        -0.129355         0.103341         0.237582
 C         1.320828        -0.063224        -0.155985
 C         1.734541        -1.447664        -0.713950
 C         3.142374        -0.968726        -1.003369
 C         3.592230        -0.211046         0.234270
 C         4.009041         0.960198        -0.757038
 C         2.957177         0.333036        -1.699622
 O         1.549310         0.755849        -1.361455
 O         2.330179         0.142861         0.830764
 H        -0.463769        -0.215617         1.240473
 H        -0.363958         1.204211         0.140651
 H        -0.839576        -0.406442        -0.450858
 H         1.655572        -2.321599        -0.098952
 H         1.380792        -1.762124        -1.653953
 H         3.888568        -1.751646        -1.386454
 H         4.139747        -0.701326         1.055991
 H         3.875740         2.023718        -0.556781
 H         5.021912         0.806265        -1.134831
 H         2.720902         0.538618        -2.828120
