19
Iteration:   752
 C        -0.024823         0.123890         0.419560
 C         1.308810        -0.128409        -0.157761
 C         1.718278        -1.505421        -0.838472
 C         3.109297        -1.068600        -1.099589
 C         3.657837        -0.261258         0.127767
 C         3.911296         1.006677        -0.751598
 C         2.866263         0.401155        -1.758730
 O         1.584555         0.954256        -1.282799
 O         2.334952        -0.007633         0.885154
 H        -0.263814        -0.387199         1.313179
 H        -0.049124         1.224604         0.565360
 H        -0.792176         0.138280        -0.395442
 H         1.584411        -2.258614        -0.020494
 H         1.229860        -1.745213        -1.784069
 H         3.735405        -1.833711        -1.576685
 H         4.463475        -0.587301         0.764571
 H         3.564978         1.939144        -0.413266
 H         4.907143         1.122913        -1.078008
 H         2.952368         0.683606        -2.768161
