19
Iteration:  1159
 C        -0.089995         0.190016         0.369008
 C         1.326280        -0.162007        -0.182489
 C         1.658710        -1.502802        -0.738492
 C         3.113081        -0.976510        -1.067361
 C         3.633440        -0.285190         0.126204
 C         3.972416         0.985987        -0.757834
 C         2.914768         0.502168        -1.671307
 O         1.553671         0.802497        -1.336485
 O         2.357723         0.002861         0.799632
 H        -0.159529        -0.390715         1.341430
 H        -0.148141         1.252484         0.694201
 H        -0.821020        -0.089034        -0.271471
 H         1.773719        -2.403153        -0.153709
 H         1.040206        -1.677824        -1.621088
 H         3.774356        -1.697512        -1.495464
 H         4.344755        -0.579256         0.923838
 H         3.680626         2.075213        -0.389550
 H         5.065868         1.095151        -1.129522
 H         3.128054         0.765390        -2.709164
