19
Iteration:    28
 C        -0.164587        -0.017639         0.449753
 C         1.250501        -0.042683        -0.242755
 C         1.706011        -1.473626        -0.764483
 C         3.090486        -1.007980        -1.099012
 C         3.548001        -0.261247         0.103904
 C         4.011651         0.960538        -0.817828
 C         3.008137         0.422585        -1.754035
 O         1.678341         0.979681        -1.214604
 O         2.325979         0.066019         0.822977
 H        -0.175176        -0.469037         1.583231
 H        -0.402691         1.072622         0.665128
 H        -0.986528        -0.475869        -0.171262
 H         1.665612        -2.251217         0.136530
 H         1.162065        -2.138258        -1.499524
 H         3.692448        -1.673610        -1.759046
 H         4.222703        -0.774144         0.843982
 H         3.877974         1.981273        -0.386353
 H         5.031702         0.696931        -1.243864
 H         3.051119         0.613161        -2.875280
