19
Iteration:    32charge 0 multiplicity 1
 C        -0.120562        -0.030487         0.443152
 C         1.288752        -0.082088        -0.239318
 C         1.680237        -1.457953        -0.764871
 C         3.048904        -0.983541        -1.107092
 C         3.539402        -0.265087         0.114334
 C         4.003620         0.954612        -0.812112
 C         2.983399         0.444581        -1.730438
 O         1.690872         0.941872        -1.234529
 O         2.331487         0.088507         0.855474
 H        -0.171707        -0.390043         1.372493
 H        -0.393017         1.001668         0.575565
 H        -0.921843        -0.488831        -0.139810
 H         1.652099        -2.140124        -0.006507
 H         1.157044        -1.997245        -1.545016
 H         3.706521        -1.633117        -1.669673
 H         4.176693        -0.757541         0.817355
 H         3.946809         1.963872        -0.484760
 H         4.979278         0.617178        -1.298773
 H         3.036175         0.648171        -2.861871
