19
Iteration:  2996
 C        -0.116412         0.189292         0.316643
 C         1.299414        -0.128496        -0.208332
 C         1.813402        -1.530762        -0.715408
 C         3.105362        -1.013416        -1.074834
 C         3.585328        -0.121807         0.231776
 C         3.987824         0.949187        -0.759935
 C         2.944955         0.353979        -1.734683
 O         1.601957         0.798047        -1.334331
 O         2.218929         0.115475         0.839847
 H        -0.405168        -0.775683         0.733779
 H        -0.057699         1.121114         0.933599
 H        -0.710979         0.360135        -0.593592
 H         1.896695        -2.343564         0.027197
 H         1.204358        -1.875028        -1.573727
 H         3.991054        -1.724636        -1.398773
 H         4.243256        -0.514597         1.139124
 H         3.896581         1.963756        -0.366683
 H         5.021654         0.773051        -1.139673
 H         2.949372         0.288980        -2.976142
