19
Iteration:  3463
 C        -0.126615         0.116754         0.345746
 C         1.267025        -0.107609        -0.265338
 C         1.745419        -1.497364        -0.786706
 C         3.158816        -1.067924        -1.072587
 C         3.587911        -0.144980         0.260328
 C         3.950608         0.969149        -0.700981
 C         3.011167         0.328066        -1.704080
 O         1.602448         0.744189        -1.340942
 O         2.317238         0.188856         0.821539
 H        -0.455846        -0.588860         1.169740
 H        -0.371581         1.182058         0.638311
 H        -0.915770         0.170566        -0.487710
 H         1.619598        -2.076170         0.120613
 H         1.073502        -1.701967        -1.656559
 H         3.960626        -1.778689        -1.517215
 H         4.317666        -0.569687         0.982856
 H         3.525505         1.967107        -0.550929
 H         4.983195         1.054675        -0.946345
 H         3.028282         0.518651        -2.824203
