19
Iteration:  1399charge 0 multiplicity 1
 C        -0.095691         0.206083         0.282835
 C         1.370451        -0.130233        -0.209418
 C         1.676998        -1.415567        -0.802000
 C         3.223410        -1.068826        -1.095362
 C         3.641757        -0.220730         0.183037
 C         3.867399         1.020251        -0.740966
 C         2.837545         0.370018        -1.640230
 O         1.547105         0.811067        -1.238326
 O         2.366264         0.006165         0.826077
 H        -0.106584        -0.411611         1.307361
 H        -0.018886         1.373247         0.339963
 H        -0.863112        -0.081132        -0.432274
 H         1.513103        -2.239535        -0.090241
 H         1.290733        -1.530687        -1.787594
 H         3.834213        -1.844572        -1.600241
 H         4.432439        -0.652909         0.829144
 H         3.797972         2.027800        -0.333086
 H         4.807389         0.886315        -1.118447
 H         3.041649         0.524125        -2.713363
