19
Iteration:  1907
 C        -0.049843         0.208260         0.409915
 C         1.362472        -0.115007        -0.164536
 C         1.778449        -1.396394        -0.819235
 C         3.107719        -0.969495        -1.102564
 C         3.563115        -0.236069         0.175210
 C         4.003926         0.947165        -0.622039
 C         2.912366         0.345964        -1.690129
 O         1.517183         0.653667        -1.392615
 O         2.292532         0.176339         0.782119
 H        -0.262868        -0.261482         1.320994
 H        -0.055012         1.243795         0.472419
 H        -0.834567        -0.165858        -0.340389
 H         1.749115        -2.270900        -0.123352
 H         1.139153        -1.795416        -1.646681
 H         3.957333        -1.563454        -1.559804
 H         4.156948        -0.822615         0.901684
 H         3.635501         1.878273        -0.184584
 H         5.061118         0.770455        -1.041591
 H         2.964642         0.556296        -2.737782
