19
Iteration:   407
 C        -0.031766         0.084208         0.393652
 C         1.343132        -0.105690        -0.146158
 C         1.639834        -1.529428        -0.739569
 C         3.034362        -1.001352        -1.230676
 C         3.522689        -0.228682         0.138506
 C         3.982267         1.004763        -0.749833
 C         2.944066         0.477195        -1.793891
 O         1.673110         0.836052        -1.221598
 O         2.329409         0.053280         0.867083
 H        -0.093419        -0.452103         1.288642
 H        -0.398899         1.095873         0.530395
 H        -0.844428        -0.296442        -0.281189
 H         1.886351        -2.307452        -0.026447
 H         0.987352        -1.711280        -1.558053
 H         3.754401        -1.749573        -1.571650
 H         4.364657        -0.688455         0.759669
 H         3.685978         1.980258        -0.288118
 H         4.954104         0.956899        -1.215887
 H         3.057786         0.793581        -2.891065
