19
Iteration:   728charge 0 multiplicity 1
 C        -0.031820         0.132970         0.363749
 C         1.308496        -0.117967        -0.117908
 C         1.658809        -1.433611        -0.839588
 C         3.101755        -0.977079        -1.145758
 C         3.640102        -0.265052         0.159795
 C         3.978133         0.957836        -0.715773
 C         2.853183         0.452181        -1.660128
 O         1.554483         0.724928        -1.266111
 O         2.384756         0.092761         0.800284
 H        -0.196613        -0.668023         1.159352
 H        -0.090871         1.148428         0.838628
 H        -0.729542         0.299702        -0.417193
 H         1.543623        -2.319617        -0.174394
 H         1.107599        -1.500734        -1.800596
 H         3.807299        -1.615965        -1.715907
 H         4.351496        -0.636449         0.901763
 H         3.913967         1.929290        -0.427335
 H         4.980186         0.788757        -1.120591
 H         2.788547         0.758031        -2.784354
