19
Iteration:  3061charge 0 multiplicity 1
 C        -0.095788         0.189544         0.268212
 C         1.284929        -0.092311        -0.298895
 C         1.797768        -1.526151        -0.704659
 C         3.143036        -1.050074        -0.985771
 C         3.548316        -0.108621         0.209881
 C         3.938083         0.952187        -0.753942
 C         2.950752         0.388655        -1.743500
 O         1.611811         0.770839        -1.299667
 O         2.281326         0.089393         0.827431
 H        -0.270442        -0.449460         1.119144
 H        -0.278391         1.119037         0.840507
 H        -1.028663         0.063541        -0.299076
 H         1.568897        -2.244727         0.145025
 H         1.129792        -1.847888        -1.576759
 H         3.950919        -1.879344        -1.271681
 H         4.400261        -0.665344         0.717933
 H         3.936036         2.001065        -0.419247
 H         4.960497         0.684358        -1.170232
 H         3.142238         0.679798        -2.892212
