19
Iteration:  3277charge 0 multiplicity 1
 C        -0.086834         0.101710         0.282822
 C         1.352372        -0.060731        -0.217891
 C         1.642675        -1.535987        -0.694518
 C         3.091939        -1.069958        -1.042466
 C         3.538848        -0.156973         0.222272
 C         3.956495         1.012352        -0.741413
 C         3.018561         0.349450        -1.750367
 O         1.673269         0.777408        -1.332880
 O         2.266838         0.180481         0.825740
 H        -0.055375        -0.573622         1.149501
 H        -0.208035         1.154352         0.549651
 H        -0.759221        -0.263041        -0.572315
 H         1.748985        -2.263477         0.133433
 H         1.233540        -1.966565        -1.639942
 H         3.846090        -1.788388        -1.325649
 H         4.154839        -0.639958         0.990456
 H         3.647493         2.008958        -0.503811
 H         4.985696         0.970279        -1.079778
 H         2.803597         0.623215        -2.753821
