19
Iteration:  2998charge 0 multiplicity 1
 C        -0.121210         0.184318         0.330522
 C         1.315153        -0.137939        -0.212758
 C         1.814189        -1.501753        -0.723712
 C         3.112950        -1.026253        -1.043894
 C         3.596647        -0.134220         0.237424
 C         3.996856         0.943387        -0.769351
 C         2.926995         0.365421        -1.738506
 O         1.596594         0.791385        -1.335784
 O         2.212592         0.120937         0.827252
 H        -0.456662        -0.791878         0.727149
 H        -0.091296         1.093762         0.912935
 H        -0.688621         0.363323        -0.624165
 H         1.843678        -2.256037         0.038708
 H         1.260443        -1.816387        -1.545692
 H         3.991414        -1.683068        -1.395802
 H         4.232819        -0.621323         1.055515
 H         3.853760         1.956399        -0.408004
 H         5.019587         0.800716        -1.113521
 H         2.991051         0.306860        -2.930958
