19
Iteration:  1382charge 0 multiplicity 1
 C        -0.120785         0.179165         0.411373
 C         1.279234        -0.072529        -0.144387
 C         1.735651        -1.492084        -0.835907
 C         3.095083        -0.982155        -1.101584
 C         3.565980        -0.216880         0.204806
 C         3.965174         0.993921        -0.753736
 C         2.986023         0.411192        -1.820845
 O         1.623533         0.789738        -1.317474
 O         2.337513        -0.018197         0.908696
 H        -0.272008        -0.300346         1.313562
 H        -0.320089         1.198933         0.491673
 H        -0.817161        -0.168261        -0.371363
 H         1.637712        -2.310053        -0.114371
 H         1.107320        -1.711490        -1.742359
 H         3.815109        -1.650108        -1.608210
 H         4.326964        -0.485893         0.933563
 H         3.548321         1.927537        -0.326589
 H         5.097203         0.970585        -1.123383
 H         3.033555         0.594800        -2.889789
