19
Iteration:  3453charge 0 multiplicity 1
 C        -0.163560         0.100341         0.290338
 C         1.322020        -0.110572        -0.238231
 C         1.711070        -1.458942        -0.793254
 C         3.082270        -1.057038        -1.053969
 C         3.585358        -0.208821         0.247443
 C         3.900222         0.962900        -0.719544
 C         3.001887         0.327117        -1.726965
 O         1.630125         0.753501        -1.351850
 O         2.357161         0.254675         0.897177
 H        -0.550102        -0.684488         1.031006
 H         0.019847         1.050565         0.867103
 H        -0.774136        -0.046273        -0.624568
 H         1.693788        -2.351527        -0.125415
 H         1.202041        -1.891164        -1.735160
 H         4.052223        -1.682304        -1.264617
 H         4.413525        -0.382199         0.965591
 H         3.551400         1.968709        -0.393749
 H         4.851122         0.982514        -1.158140
 H         3.080208         0.511114        -2.820146
