19
Iteration:  2831charge 0 multiplicity 1
 C        -0.067320         0.217383         0.328042
 C         1.283458        -0.125053        -0.178507
 C         1.774898        -1.481023        -0.726767
 C         3.143880        -0.979041        -0.990915
 C         3.588426        -0.194181         0.227875
 C         3.991974         1.013667        -0.738105
 C         2.948409         0.335174        -1.745620
 O         1.559394         0.743694        -1.361865
 O         2.246650         0.048504         0.732801
 H        -0.499621        -0.507224         1.031465
 H         0.069636         1.131448         0.943439
 H        -0.777213         0.430046        -0.451231
 H         1.768775        -2.103039         0.091192
 H         1.061695        -1.932270        -1.411442
 H         3.916936        -1.623207        -1.386341
 H         4.262047        -0.578701         1.049243
 H         3.912300         2.055469        -0.391590
 H         5.000593         0.896088        -1.100091
 H         3.027006         0.370810        -2.892486
