19
Iteration:  4012charge 0 multiplicity 1
 C        -0.097403         0.194474         0.313425
 C         1.327345        -0.128642        -0.225837
 C         1.812706        -1.617140        -0.749079
 C         3.117986        -1.038548        -1.012572
 C         3.607956        -0.120573         0.230500
 C         4.039080         1.007780        -0.706022
 C         2.889389         0.376107        -1.680503
 O         1.567944         0.786756        -1.348748
 O         2.242629         0.092402         0.755918
 H        -0.526812        -0.706680         0.855964
 H        -0.150670         1.196198         0.761528
 H        -0.858714         0.439825        -0.475695
 H         1.707918        -2.263742         0.080964
 H         1.096606        -1.904755        -1.545725
 H         3.763571        -1.657510        -1.539764
 H         4.201124        -0.441795         1.079036
 H         3.875752         2.044839        -0.352635
 H         5.109828         0.871744        -1.144333
 H         3.054477         0.533042        -2.739736
