19
Iteration:  1240
 C        -0.004371         0.098920         0.422017
 C         1.364087        -0.138764        -0.186492
 C         1.701720        -1.465418        -0.826469
 C         3.081967        -0.991076        -1.104455
 C         3.567670        -0.292567         0.183594
 C         3.965035         0.951550        -0.707111
 C         2.900738         0.405921        -1.781120
 O         1.608947         0.800815        -1.282355
 O         2.300280         0.190633         0.828302
 H        -0.220455        -0.519560         1.212544
 H        -0.160247         1.078637         0.752350
 H        -0.884245        -0.006325        -0.248083
 H         1.543153        -2.347946        -0.151069
 H         1.148262        -1.546771        -1.782107
 H         3.739869        -1.719261        -1.655349
 H         4.260053        -0.787405         0.861579
 H         3.571538         1.847563        -0.202445
 H         4.996324         0.944192        -1.166977
 H         3.145289         0.635535        -2.818590
