19
Iteration:  1115charge 0 multiplicity 1
 C        -0.071279         0.099540         0.466646
 C         1.289646        -0.158808        -0.150078
 C         1.707668        -1.478632        -0.841171
 C         3.120418        -1.004916        -1.071221
 C         3.573658        -0.207298         0.161683
 C         4.010910         0.978880        -0.774902
 C         2.949869         0.395365        -1.744338
 O         1.580526         0.814156        -1.267839
 O         2.291666         0.102675         0.784621
 H        -0.454415        -0.563528         1.292430
 H         0.042534         1.086679         0.969328
 H        -0.691071         0.265356        -0.390700
 H         1.450815        -2.341372        -0.194218
 H         1.235056        -1.644734        -1.831091
 H         3.871559        -1.625513        -1.522136
 H         4.284281        -0.771518         0.836384
 H         3.753526         2.079030        -0.313004
 H         5.077596         1.025905        -1.310797
 H         3.109372         0.590638        -2.827321
