19
Iteration:  3576charge 0 multiplicity 1
 C        -0.174380         0.127950         0.326131
 C         1.304595        -0.173978        -0.236498
 C         1.762909        -1.604744        -0.748533
 C         3.149152        -1.014675        -1.044863
 C         3.555533        -0.165129         0.249780
 C         4.068530         0.999129        -0.745300
 C         2.992560         0.428097        -1.735322
 O         1.592137         0.776184        -1.331306
 O         2.242005         0.207008         0.798090
 H        -0.456482        -0.464430         1.202907
 H        -0.083563         1.145755         0.743348
 H        -0.918071        -0.001611        -0.462650
 H         1.601532        -2.402181         0.060249
 H         1.073446        -1.661958        -1.668693
 H         3.941286        -1.758703        -1.277140
 H         4.222710        -0.652685         1.016094
 H         3.880295         2.019758        -0.464670
 H         5.032689         0.721742        -1.081365
 H         3.059803         0.429376        -2.789327
