19
Iteration:  2980charge 0 multiplicity 1
 C        -0.084980         0.196025         0.273679
 C         1.342235        -0.125036        -0.237712
 C         1.711787        -1.609583        -0.740622
 C         3.161686        -1.085975        -1.075007
 C         3.461500        -0.089465         0.237848
 C         3.946655         1.011742        -0.769060
 C         2.966164         0.430377        -1.780316
 O         1.656665         0.719014        -1.274257
 O         2.279359         0.108036         0.882796
 H        -0.490793        -0.490869         1.030632
 H        -0.030327         1.154884         0.811194
 H        -0.850172         0.356686        -0.506071
 H         1.755020        -2.234772         0.197328
 H         1.064181        -2.060214        -1.571913
 H         3.868060        -1.577144        -1.628692
 H         4.252883        -0.429573         0.872194
 H         3.834452         2.122116        -0.692179
 H         5.001463         0.703473        -0.891444
 H         3.164997         0.742768        -2.726535
