19
Iteration:  2503
 C        -0.099519         0.158274         0.312392
 C         1.279517        -0.107342        -0.116761
 C         1.703520        -1.454076        -0.799311
 C         3.142899        -1.005565        -1.065306
 C         3.520395        -0.184810         0.161401
 C         3.970263         0.952675        -0.746413
 C         2.971976         0.361565        -1.784615
 O         1.654313         0.675748        -1.272315
 O         2.312397         0.217006         0.855146
 H        -0.379513        -0.262153         1.300028
 H        -0.476048         1.180790         0.324362
 H        -0.670483        -0.475574        -0.425180
 H         1.730537        -2.470414        -0.076599
 H         1.211340        -1.355962        -1.834522
 H         3.948847        -1.790817        -1.149579
 H         4.120784        -0.638197         1.009079
 H         3.946624         2.012771        -0.399647
 H         4.981432         0.636797        -1.150618
 H         2.859762         0.494908        -2.921272
