19
Iteration:  1964
 C        -0.152248         0.127703         0.281551
 C         1.393739        -0.117187        -0.131780
 C         1.740230        -1.476148        -0.769042
 C         3.107147        -1.029390        -1.082332
 C         3.533652        -0.219073         0.197680
 C         3.960061         0.918986        -0.842572
 C         2.954666         0.434918        -1.829190
 O         1.658193         0.793359        -1.280392
 O         2.267390         0.123988         0.979844
 H        -0.383331        -0.517897         1.200965
 H        -0.293364         1.202150         0.603359
 H        -0.845857        -0.095126        -0.504715
 H         1.715014        -2.192486        -0.005540
 H         1.251608        -1.659891        -1.651682
 H         3.919455        -1.695586        -1.486463
 H         4.261323        -0.668816         0.884468
 H         3.752624         1.970668        -0.539205
 H         4.998725         0.865650        -1.105743
 H         2.975607         0.697278        -2.937187
