19
Iteration:  4441
 C        -0.071686         0.172464         0.190736
 C         1.323364        -0.097216        -0.202234
 C         1.794445        -1.561837        -0.669452
 C         3.129559        -1.023416        -1.108032
 C         3.540037        -0.114147         0.275206
 C         3.958156         0.949914        -0.759398
 C         2.933548         0.367290        -1.730137
 O         1.623377         0.748244        -1.279983
 O         2.222251         0.142707         0.814126
 H        -0.468447        -0.575631         0.886293
 H         0.033348         1.018570         0.831757
 H        -0.770579         0.477766        -0.594974
 H         1.711756        -2.279150         0.218042
 H         1.017989        -2.029889        -1.443818
 H         4.043955        -1.651356        -1.426599
 H         4.186824        -0.538426         1.079890
 H         4.024005         2.032675        -0.729897
 H         5.027746         0.774917        -0.967246
 H         2.978148         0.461000        -2.825209
