19
Iteration:  3170charge 0 multiplicity 1
 C        -0.091750         0.097489         0.289093
 C         1.300168        -0.143117        -0.205581
 C         1.744805        -1.467715        -0.772617
 C         3.106194        -1.035459        -1.049906
 C         3.567044        -0.149619         0.321008
 C         4.013205         0.960364        -0.794234
 C         2.927318         0.380146        -1.671404
 O         1.607466         0.738019        -1.319461
 O         2.274857         0.205545         0.804871
 H        -0.339110        -0.484568         1.150149
 H        -0.102975         1.117889         0.535279
 H        -0.715149        -0.106404        -0.592797
 H         1.564381        -2.290067        -0.052653
 H         1.280069        -1.708455        -1.773225
 H         3.726869        -1.719588        -1.590952
 H         4.385614        -0.336456         1.003600
 H         3.910992         2.006091        -0.480347
 H         5.064078         0.742223        -1.137563
 H         2.909367         0.241971        -2.685678
