19
Iteration:  3519charge 0 multiplicity 1
 C        -0.155306         0.180564         0.292220
 C         1.305388        -0.085390        -0.167251
 C         1.805467        -1.512863        -0.778912
 C         3.144701        -1.013432        -1.043619
 C         3.632381        -0.176380         0.153098
 C         3.960394         0.983340        -0.697747
 C         2.934247         0.362115        -1.692440
 O         1.641529         0.709222        -1.298052
 O         2.250249         0.145247         0.797775
 H        -0.408151        -0.254898         1.327395
 H        -0.435094         1.292657         0.147990
 H        -0.836014        -0.259125        -0.468631
 H         1.546509        -2.333967        -0.094764
 H         1.120562        -1.640683        -1.683155
 H         3.846325        -1.909911        -1.302740
 H         4.291318        -0.626701         0.925160
 H         3.624996         1.974965        -0.345368
 H         4.963670         1.098419        -0.974313
 H         3.101525         0.393765        -2.775133
