19
Iteration:  4230charge 0 multiplicity 1
 C        -0.086392         0.091152         0.236449
 C         1.295755        -0.065284        -0.204427
 C         1.700099        -1.436997        -0.642347
 C         3.172570        -0.987462        -1.063011
 C         3.596332        -0.118379         0.203609
 C         4.007852         0.985461        -0.680958
 C         2.923503         0.305851        -1.744831
 O         1.597388         0.734087        -1.369122
 O         2.275693         0.099607         0.827573
 H        -0.559461        -0.684389         0.825746
 H        -0.085339         1.000831         0.839689
 H        -0.669702         0.328868        -0.618217
 H         1.490199        -2.274610         0.017447
 H         1.062230        -1.925894        -1.431100
 H         3.856580        -1.789048        -1.383144
 H         4.287787        -0.530830         0.948761
 H         3.848599         2.049605        -0.416469
 H         5.031088         0.921482        -1.040615
 H         3.059588         0.534657        -2.796876
