19
Iteration:  1035charge 0 multiplicity 1
 C        -0.055077         0.151645         0.402510
 C         1.331543        -0.156380        -0.162985
 C         1.688933        -1.388052        -0.842003
 C         3.169326        -1.042508        -1.041329
 C         3.598149        -0.239159         0.205480
 C         3.936683         1.008444        -0.774091
 C         2.859275         0.468389        -1.728139
 O         1.525510         0.783253        -1.349877
 O         2.373041         0.020677         0.882465
 H        -0.128413        -0.499303         1.249434
 H        -0.056230         1.209937         0.673917
 H        -0.892896        -0.105226        -0.410572
 H         1.575142        -2.193337        -0.115614
 H         1.107937        -1.598499        -1.768045
 H         3.839843        -1.819558        -1.477253
 H         4.330176        -0.712924         0.821294
 H         4.082789         2.101139        -0.471789
 H         4.978984         0.766298        -1.342959
 H         3.043824         0.620529        -2.853283
