19
Iteration:  2375charge 0 multiplicity 1
 C        -0.103294         0.104654         0.297254
 C         1.356751        -0.077824        -0.194351
 C         1.739166        -1.457740        -0.653490
 C         3.110135        -1.038872        -1.116905
 C         3.536515        -0.222425         0.149016
 C         3.968652         0.941280        -0.676135
 C         2.990861         0.405559        -1.749870
 O         1.593729         0.702970        -1.297048
 O         2.297446         0.254212         0.781286
 H        -0.291657        -0.794881         1.013704
 H        -0.281927         1.101275         0.831592
 H        -0.801640        -0.034286        -0.650225
 H         1.810704        -2.302273         0.011322
 H         1.009572        -1.746925        -1.428129
 H         3.870100        -1.714217        -1.512877
 H         3.961999        -0.825656         0.960940
 H         3.954019         1.943728        -0.214782
 H         4.981029         0.784701        -1.114198
 H         2.952456         0.685539        -2.777974
