19
Iteration:  1290charge 0 multiplicity 1
 C        -0.053290         0.178127         0.309466
 C         1.330082        -0.078090        -0.204504
 C         1.790274        -1.578070        -0.755552
 C         3.126154        -1.040873        -1.121595
 C         3.558398        -0.226054         0.118778
 C         3.912963         0.990572        -0.799200
 C         2.904430         0.375486        -1.733702
 O         1.621414         0.923268        -1.212416
 O         2.277156         0.020694         0.864451
 H        -0.500544        -0.593269         1.098310
 H        -0.038457         1.148390         0.987795
 H        -0.915222         0.401132        -0.359056
 H         1.826135        -2.250721         0.094283
 H         1.216644        -2.032843        -1.549983
 H         3.991447        -1.584669        -1.494487
 H         4.203382        -0.678881         0.897729
 H         3.733403         1.904191        -0.176510
 H         4.852392         0.944594        -1.335683
 H         3.032917         0.448491        -2.824874
