19
Iteration:  2406
 C        -0.068361         0.164062         0.303095
 C         1.319515        -0.117701        -0.223009
 C         1.693480        -1.482143        -0.681928
 C         3.164364        -1.051339        -0.988900
 C         3.615758        -0.117098         0.234488
 C         3.956577         1.007150        -0.797392
 C         2.925285         0.347501        -1.738673
 O         1.607716         0.818158        -1.323071
 O         2.253561         0.021478         0.799251
 H        -0.507070        -0.656300         0.803079
 H        -0.077239         1.129908         0.711959
 H        -0.863134         0.241147        -0.485199
 H         1.714184        -2.184267         0.131633
 H         1.184889        -1.855641        -1.557070
 H         3.818932        -1.787510        -1.491456
 H         4.295192        -0.429234         1.060448
 H         3.994274         2.058973        -0.498210
 H         4.989948         0.890808        -1.237838
 H         2.995957         0.413406        -2.811632
