19
Iteration:  4478charge 0 multiplicity 1
 C        -0.140017         0.141865         0.331624
 C         1.370267        -0.096436        -0.256163
 C         1.720914        -1.481016        -0.752246
 C         3.185954        -1.079177        -1.006348
 C         3.616525        -0.119959         0.316911
 C         3.938535         0.972683        -0.663653
 C         2.950620         0.268402        -1.726213
 O         1.588698         0.781621        -1.431855
 O         2.293699         0.177494         0.797949
 H        -0.315424        -0.661774         1.133167
 H        -0.371412         1.241688         0.710413
 H        -0.856552        -0.092160        -0.500974
 H         1.485910        -2.120639         0.003638
 H         1.208979        -1.472164        -1.609176
 H         3.841842        -1.709449        -1.548516
 H         4.248781        -0.691964         1.023655
 H         3.471883         1.978538        -0.478066
 H         4.985832         0.872194        -1.109554
 H         3.079729         0.297244        -2.874775
