19
Iteration:  4172charge 0 multiplicity 1
 C        -0.085090         0.180707         0.322359
 C         1.283472        -0.122155        -0.222140
 C         1.689435        -1.555739        -0.796164
 C         3.171282        -1.044702        -1.055268
 C         3.582178        -0.077539         0.289671
 C         4.011859         0.971293        -0.730119
 C         2.915276         0.384647        -1.677537
 O         1.577867         0.714221        -1.420593
 O         2.303096         0.126268         0.871880
 H        -0.323348        -0.454292         1.159474
 H        -0.188230         1.211060         0.551862
 H        -0.822143         0.028651        -0.435295
 H         1.700212        -2.351891        -0.070500
 H         1.319610        -1.604146        -1.725535
 H         3.920991        -1.750529        -1.273127
 H         4.211249        -0.489146         1.103693
 H         3.935648         1.999693        -0.506809
 H         4.869327         0.754303        -1.298314
 H         3.065383         0.629925        -2.760102
