19
Iteration:  3097charge 0 multiplicity 1
 C        -0.101809         0.220266         0.263543
 C         1.322543        -0.163072        -0.124431
 C         1.744139        -1.506121        -0.777285
 C         3.146106        -1.020128        -1.032839
 C         3.529360        -0.170949         0.159940
 C         3.931169         0.981380        -0.698374
 C         2.946087         0.360247        -1.774754
 O         1.637594         0.682928        -1.342029
 O         2.307984         0.174950         0.887416
 H        -0.147182        -0.085246         1.321492
 H        -0.110922         1.279796         0.180960
 H        -0.824519        -0.290984        -0.403157
 H         1.640809        -2.307317        -0.118237
 H         1.218889        -1.670537        -1.669714
 H         3.787221        -1.776543        -1.326931
 H         4.163497        -0.744107         0.835405
 H         3.638244         1.986394        -0.421311
 H         4.956827         0.897724        -0.960359
 H         2.945725         0.824146        -2.816102
