19
Iteration:  3534
 C        -0.077807         0.098107         0.224036
 C         1.312781        -0.169257        -0.180274
 C         1.590038        -1.495612        -0.722724
 C         3.130823        -1.083144        -0.987223
 C         3.546432        -0.208351         0.248733
 C         3.943713         1.055014        -0.747338
 C         3.007121         0.383548        -1.754794
 O         1.634771         0.807841        -1.361730
 O         2.349595         0.142913         0.864553
 H        -0.254945        -0.276006         1.185837
 H        -0.237157         1.135431         0.210815
 H        -0.808515        -0.341339        -0.450831
 H         1.617590        -2.296892         0.030618
 H         1.255704        -1.768800        -1.694719
 H         3.903667        -1.529581        -1.505790
 H         4.257301        -0.518751         1.021007
 H         3.667092         2.012401        -0.311511
 H         4.988207         1.070897        -1.169806
 H         3.032454         0.597361        -2.787920
