19
Iteration:  1998charge 0 multiplicity 1
 C        -0.078352         0.065840         0.307142
 C         1.257699        -0.101182        -0.220719
 C         1.714599        -1.473167        -0.716133
 C         3.124835        -1.052804        -0.975260
 C         3.633437        -0.301085         0.185108
 C         4.080958         0.939660        -0.729617
 C         2.898040         0.488938        -1.702958
 O         1.555791         0.778760        -1.316428
 O         2.298362         0.195501         0.730847
 H        -0.470315        -0.638589         1.132475
 H        -0.074348         1.107832         0.820062
 H        -0.848754         0.129373        -0.414307
 H         1.524344        -2.208673         0.000945
 H         1.196539        -1.779594        -1.547821
 H         3.816528        -1.660925        -1.547620
 H         4.233394        -0.786586         0.966620
 H         3.815884         1.947069        -0.312304
 H         5.026238         1.005376        -1.181143
 H         3.146376         0.764373        -2.786079
