19
Iteration:  2871charge 0 multiplicity 1
 C        -0.081796         0.129790         0.273592
 C         1.381168        -0.117802        -0.154187
 C         1.617726        -1.479759        -0.718613
 C         3.121612        -1.002176        -1.068143
 C         3.563719        -0.136063         0.219253
 C         4.010580         1.008769        -0.735038
 C         2.929735         0.325283        -1.731846
 O         1.595530         0.735036        -1.320431
 O         2.317209         0.146679         0.829180
 H        -0.395975        -0.380403         1.191107
 H        -0.171347         1.180146         0.291488
 H        -0.528857        -0.305024        -0.635111
 H         1.670391        -2.475438        -0.127629
 H         1.028849        -1.721508        -1.666868
 H         3.845459        -1.651107        -1.493859
 H         4.136874        -0.568670         1.018245
 H         3.794222         1.993959        -0.260203
 H         5.020657         1.000223        -1.175347
 H         3.089902         0.347983        -2.763024
