19
Iteration:  2270charge 0 multiplicity 1
 C        -0.147120         0.150240         0.291691
 C         1.325301        -0.116665        -0.090013
 C         1.729148        -1.507586        -0.734911
 C         3.115457        -1.027374        -1.081503
 C         3.628034        -0.208268         0.226658
 C         4.017252         0.946676        -0.710705
 C         2.940322         0.428926        -1.721012
 O         1.538395         0.756849        -1.463917
 O         2.331246         0.163291         0.880905
 H        -0.386209        -0.426395         1.183089
 H        -0.367216         1.202683         0.479967
 H        -0.821050        -0.106865        -0.412288
 H         1.764109        -2.371932        -0.018659
 H         1.186918        -1.526217        -1.724850
 H         3.836593        -1.677410        -1.553213
 H         4.248302        -0.577615         1.072498
 H         3.918128         2.042192        -0.424217
 H         4.955948         0.493165        -1.053647
 H         3.056467         0.498538        -2.847600
