19
Iteration:  4058
 C        -0.043789         0.136079         0.357814
 C         1.278206        -0.083214        -0.201475
 C         1.683522        -1.475249        -0.735589
 C         3.195372        -1.038512        -1.073161
 C         3.559683        -0.167373         0.266118
 C         3.937583         0.989071        -0.715367
 C         2.988871         0.335788        -1.736539
 O         1.595272         0.793137        -1.404384
 O         2.272682         0.098172         0.818300
 H        -0.360316        -0.736204         1.007876
 H        -0.288100         1.190605         0.653520
 H        -0.796108         0.193242        -0.458052
 H         1.640510        -2.158773         0.105610
 H         1.256374        -1.936495        -1.573142
 H         4.025009        -1.659813        -1.523041
 H         4.263111        -0.452693         1.055023
 H         3.666188         2.042767        -0.444087
 H         5.005687         0.936977        -1.046494
 H         3.113002         0.223034        -2.808058
