19
Iteration:  2652
 C        -0.147095         0.144239         0.282999
 C         1.242246        -0.048388        -0.200440
 C         1.775493        -1.511994        -0.823762
 C         3.112232        -1.010345        -1.062365
 C         3.668773        -0.139620         0.251225
 C         4.003705         0.903119        -0.714579
 C         2.883547         0.337333        -1.645143
 O         1.532926         0.727738        -1.327162
 O         2.390474         0.203019         0.831153
 H        -0.345325        -0.558127         1.116440
 H        -0.321449         1.270772         0.477725
 H        -0.666589        -0.034250        -0.696962
 H         1.694534        -2.167426         0.132357
 H         1.181225        -1.852468        -1.701780
 H         3.893761        -1.667275        -1.653553
 H         4.263850        -0.611103         1.046520
 H         3.821038         1.868835        -0.276983
 H         4.944135         0.832740        -1.287077
 H         2.901569         0.199862        -2.737151
