19
Iteration:  1842
 C        -0.179417         0.112102         0.296342
 C         1.368545        -0.113458        -0.074200
 C         1.694282        -1.493956        -0.843579
 C         3.102062        -1.082328        -1.118369
 C         3.536302        -0.118425         0.148563
 C         3.989301         0.962481        -0.812514
 C         2.937001         0.397237        -1.724980
 O         1.646222         0.716106        -1.268590
 O         2.336648         0.205997         0.974204
 H        -0.503348        -0.665914         1.019308
 H        -0.095330         1.095238         0.761191
 H        -0.815134         0.169066        -0.776103
 H         1.534961        -2.439853        -0.301284
 H         1.053030        -1.528230        -1.799841
 H         3.882238        -1.864790        -1.417009
 H         4.314494        -0.579154         0.811354
 H         3.937293         2.012733        -0.562693
 H         5.055778         0.740097        -1.127737
 H         3.141036         0.607141        -2.806193
