19
Iteration:    37
 C        -0.069054        -0.013050         0.400940
 C         1.316697        -0.110491        -0.210262
 C         1.658551        -1.434068        -0.784365
 C         3.022331        -0.970496        -1.137294
 C         3.539479        -0.245521         0.142267
 C         4.021565         0.923678        -0.796778
 C         2.925776         0.465337        -1.729571
 O         1.681941         0.890826        -1.248161
 O         2.328781         0.102725         0.870281
 H        -0.065284        -0.518141         1.493492
 H        -0.414529         1.046979         0.475923
 H        -0.840290        -0.536364        -0.186869
 H         1.679292        -2.191434         0.117415
 H         1.065015        -1.738778        -1.687732
 H         3.785725        -1.655229        -1.557208
 H         4.250782        -0.752715         0.849094
 H         4.035471         2.025063        -0.528003
 H         4.949190         0.655872        -1.248779
 H         3.007578         0.652054        -2.763942
