19
Iteration:   651
 C        -0.127351         0.236066         0.436876
 C         1.278878        -0.093132        -0.088752
 C         1.738897        -1.473877        -0.887484
 C         3.068587        -0.937736        -1.176216
 C         3.577476        -0.199348         0.121186
 C         3.939908         0.969481        -0.729726
 C         2.923706         0.412678        -1.763892
 O         1.659877         0.687747        -1.237899
 O         2.391468         0.051110         0.886273
 H        -0.495818        -0.594506         1.181709
 H        -0.315749         1.224047         0.892786
 H        -0.676454        -0.045058        -0.402613
 H         1.701811        -2.423882        -0.316597
 H         1.074271        -1.632127        -1.797204
 H         3.767032        -1.573726        -1.750906
 H         4.289354        -0.848656         0.652504
 H         3.850605         1.844259        -0.233683
 H         4.965120         0.999370        -1.127377
 H         2.829594         0.520603        -2.874330
