19
Iteration:   706
 C        -0.118037         0.098604         0.487005
 C         1.261316        -0.135306        -0.129649
 C         1.738264        -1.554826        -0.748562
 C         3.078364        -0.999942        -1.234750
 C         3.500514        -0.239910         0.105569
 C         4.060688         0.938623        -0.756253
 C         3.037549         0.522563        -1.810280
 O         1.586844         0.875548        -1.289706
 O         2.293708         0.101028         0.863059
 H        -0.270704        -0.841442         1.135402
 H        -0.228255         1.041264         1.066341
 H        -0.787792         0.360651        -0.272356
 H         1.955680        -2.273157         0.078523
 H         1.033076        -1.948942        -1.518796
 H         3.915304        -1.641727        -1.595516
 H         4.070636        -0.820527         0.836916
 H         4.050865         1.786946        -0.230474
 H         5.073511         0.791887        -1.147923
 H         2.999116         0.630021        -2.949981
