19
Iteration:  3771charge 0 multiplicity 1
 C        -0.056171         0.178643         0.256004
 C         1.295113        -0.067025        -0.282950
 C         1.783070        -1.486804        -0.717014
 C         3.175310        -1.013342        -1.096976
 C         3.571281        -0.214950         0.281347
 C         3.918777         0.989111        -0.721019
 C         2.909070         0.352767        -1.733311
 O         1.600663         0.739399        -1.284393
 O         2.253418         0.109421         0.835621
 H        -0.211773        -0.565742         1.066105
 H        -0.146537         1.262758         0.577459
 H        -0.826353         0.122583        -0.628141
 H         1.731519        -2.069760         0.169606
 H         1.409613        -1.947589        -1.636153
 H         3.912130        -1.788897        -1.330366
 H         4.315420        -0.574846         0.988812
 H         3.669775         1.998257        -0.370198
 H         4.936380         0.901600        -1.140187
 H         2.991126         0.480516        -2.813479
