19
Iteration:  3729charge 0 multiplicity 1
 C        -0.128679         0.147063         0.312363
 C         1.318254        -0.082979        -0.231139
 C         1.754385        -1.433477        -0.783599
 C         3.167286        -1.015847        -1.008197
 C         3.586374        -0.177954         0.194168
 C         3.975315         0.997782        -0.694525
 C         2.976160         0.365419        -1.736910
 O         1.579345         0.668275        -1.328530
 O         2.259243         0.132973         0.856890
 H        -0.129462        -0.296848         1.311956
 H        -0.346066         1.225480         0.157925
 H        -0.923140        -0.265032        -0.430088
 H         1.820534        -2.322172        -0.087904
 H         1.139320        -1.741941        -1.688564
 H         3.779590        -1.692885        -1.574639
 H         4.142014        -0.653703         1.029775
 H         3.868344         2.020994        -0.389490
 H         4.977303         0.896975        -1.085215
 H         3.071471         0.669041        -2.784724
