19
Iteration:  1057charge 0 multiplicity 1
 C        -0.092573         0.145590         0.363570
 C         1.324874        -0.143800        -0.183181
 C         1.693387        -1.550516        -0.717021
 C         3.045897        -1.005731        -1.183016
 C         3.583603        -0.155483         0.113200
 C         4.037597         0.974674        -0.731974
 C         2.879696         0.369853        -1.765670
 O         1.636530         0.843990        -1.175534
 O         2.319885         0.082244         0.806679
 H        -0.225680        -0.667699         1.033294
 H        -0.159144         1.132058         0.831455
 H        -0.935178         0.004545        -0.489362
 H         1.782577        -2.285040         0.068852
 H         1.152089        -1.908595        -1.619898
 H         3.852074        -1.570211        -1.707856
 H         4.262744        -0.595725         0.818191
 H         3.782086         2.000436        -0.294947
 H         5.172516         1.082372        -1.067626
 H         2.950057         0.634942        -2.882700
