19
Iteration:  4093
 C        -0.159603         0.180753         0.268027
 C         1.369786        -0.134429        -0.155182
 C         1.747952        -1.586209        -0.817850
 C         3.172826        -1.000741        -1.101575
 C         3.555290        -0.178091         0.236369
 C         3.969765         0.946751        -0.761577
 C         2.966233         0.410014        -1.725298
 O         1.590188         0.758228        -1.302161
 O         2.267610         0.187001         0.895507
 H        -0.423296        -0.271277         1.223121
 H        -0.278875         1.248850         0.480209
 H        -0.688460        -0.329344        -0.561381
 H         1.610198        -2.283066         0.057611
 H         1.065574        -1.887486        -1.564961
 H         3.987781        -1.656415        -1.591474
 H         4.210817        -0.310409         1.105551
 H         3.949495         2.020226        -0.556018
 H         4.956693         0.658116        -1.045592
 H         3.024952         0.295157        -2.817782
