19
Iteration:  2881
 C        -0.078683         0.118077         0.262201
 C         1.284863        -0.117778        -0.176635
 C         1.730931        -1.438726        -0.707967
 C         3.169793        -1.030721        -1.007827
 C         3.595233        -0.206553         0.164362
 C         4.015228         0.985190        -0.767953
 C         2.909635         0.387722        -1.716208
 O         1.614462         0.723548        -1.305121
 O         2.263152         0.146258         0.837310
 H        -0.304444        -0.324738         1.251022
 H        -0.349408         1.158489         0.287021
 H        -0.827658        -0.345446        -0.455317
 H         1.248749        -2.235181        -0.022127
 H         1.243490        -1.438051        -1.727278
 H         3.861933        -1.772368        -1.433318
 H         4.352967        -0.497407         0.856508
 H         3.795426         2.044192        -0.496381
 H         5.084742         0.866739        -1.077049
 H         2.937934         0.520367        -2.758757
