19
Iteration:  1940
 C        -0.072068         0.204058         0.369181
 C         1.331338        -0.119346        -0.273301
 C         1.677291        -1.534359        -0.757380
 C         3.101912        -1.067928        -1.053676
 C         3.548588        -0.104785         0.191472
 C         3.966150         1.002567        -0.750867
 C         2.935840         0.366839        -1.738868
 O         1.652810         0.806870        -1.259336
 O         2.275400         0.002858         0.812870
 H        -0.215086        -0.279290         1.306753
 H        -0.218016         1.231256         0.502756
 H        -0.856762        -0.122363        -0.368878
 H         1.843606        -2.158575         0.115467
 H         1.220460        -1.927573        -1.673708
 H         3.950138        -1.665753        -1.529718
 H         4.327798        -0.421221         0.903181
 H         3.765222         2.072633        -0.575171
 H         5.076814         1.026660        -1.036063
 H         2.990204         0.580603        -2.803491
