19
Iteration:  4948
 C        -0.043157         0.168823         0.343005
 C         1.265716        -0.092199        -0.306370
 C         1.801349        -1.477953        -0.733150
 C         3.208528        -0.978634        -0.965220
 C         3.520506        -0.128147         0.271879
 C         3.963603         0.902539        -0.744902
 C         2.981495         0.327203        -1.742638
 O         1.568031         0.769459        -1.359807
 O         2.176715         0.135095         0.819209
 H        -0.071557        -0.147039         1.367592
 H        -0.059962         1.187154         0.076284
 H        -0.815647        -0.387576        -0.207275
 H         1.888708        -2.270951         0.101682
 H         1.299219        -1.927593        -1.756606
 H         3.934900        -1.597515        -1.414551
 H         3.958874        -0.539741         1.160331
 H         4.194302         1.948023        -0.583057
 H         4.874442         0.436210        -1.212624
 H         3.102965         0.433043        -2.817555
