19
Iteration:   686
 C        -0.018161         0.051520         0.433000
 C         1.336256        -0.058180        -0.307146
 C         1.714618        -1.447830        -0.766547
 C         3.062441        -1.025115        -1.094195
 C         3.610698        -0.202213         0.164304
 C         3.979531         0.922147        -0.762635
 C         2.845880         0.420732        -1.712301
 O         1.633557         0.899827        -1.219474
 O         2.288620         0.042293         0.780322
 H        -0.154550        -0.877096         0.967857
 H        -0.092046         0.932059         1.110132
 H        -0.843381         0.255739        -0.271081
 H         1.714572        -2.081499         0.152282
 H         1.130327        -1.850379        -1.602449
 H         3.711736        -1.623474        -1.763220
 H         4.202097        -0.713530         0.900537
 H         3.885637         1.965802        -0.422920
 H         4.932436         0.672964        -1.244171
 H         2.990334         0.578895        -2.719668
