19
Iteration:  4944charge 0 multiplicity 1
 C        -0.026073         0.173985         0.326129
 C         1.270224        -0.152912        -0.318794
 C         1.788120        -1.476363        -0.734022
 C         3.205104        -0.961700        -0.993524
 C         3.543747        -0.081437         0.298622
 C         3.989822         0.872082        -0.747692
 C         2.963109         0.356809        -1.729494
 O         1.567381         0.754824        -1.376984
 O         2.155841         0.131090         0.828516
 H        -0.057189        -0.124729         1.411215
 H        -0.009667         1.303598         0.135069
 H        -0.870061        -0.447781        -0.114393
 H         1.740059        -2.126454         0.079036
 H         1.282656        -1.870005        -1.528630
 H         3.925208        -1.660397        -1.538279
 H         3.982074        -0.621904         1.176069
 H         4.190795         1.961239        -0.581740
 H         4.913509         0.460949        -1.165910
 H         3.121401         0.450122        -2.778558
