19
Iteration:   533
 C        -0.136982         0.189307         0.423052
 C         1.335594        -0.116925        -0.176574
 C         1.751046        -1.546785        -0.728047
 C         3.119380        -0.967784        -1.232742
 C         3.558307        -0.239684         0.078500
 C         4.006683         0.925121        -0.734343
 C         2.905306         0.492621        -1.736267
 O         1.595238         0.831170        -1.261494
 O         2.320485         0.033288         0.861797
 H        -0.600186        -0.579243         1.121880
 H        -0.217536         1.102045         1.000276
 H        -0.838174         0.150619        -0.334277
 H         1.874783        -2.297505         0.061584
 H         1.060458        -1.968621        -1.484566
 H         3.884029        -1.635958        -1.684379
 H         4.230787        -0.778634         0.674381
 H         4.044506         1.938558        -0.279994
 H         5.026811         0.877497        -1.169009
 H         3.017964         0.792032        -2.699169
