19
Iteration:   199charge 0 multiplicity 1
 C        -0.089478         0.134431         0.411916
 C         1.296563        -0.107823        -0.179786
 C         1.628230        -1.521772        -0.878325
 C         3.089447        -1.082836        -1.071494
 C         3.653270        -0.182672         0.131116
 C         3.943389         1.008699        -0.773746
 C         2.880217         0.388816        -1.685234
 O         1.651627         0.863206        -1.217345
 O         2.392546         0.055919         0.832208
 H        -0.066062        -0.585893         1.265509
 H        -0.305065         1.141301         0.674474
 H        -0.811248        -0.166446        -0.266398
 H         1.325285        -2.415686        -0.327854
 H         1.229856        -1.547749        -1.872322
 H         3.681687        -1.656551        -1.837779
 H         4.445071        -0.658887         0.772066
 H         3.569220         2.058449        -0.332588
 H         4.988944         1.053250        -1.125317
 H         3.027620         0.691262        -2.699493
