19
Iteration:  3393charge 0 multiplicity 1
 C        -0.096859         0.161300         0.296342
 C         1.309801        -0.054144        -0.167645
 C         1.755611        -1.558459        -0.736052
 C         3.204330        -1.003531        -1.063048
 C         3.513929        -0.197972         0.207187
 C         3.978918         0.974400        -0.753910
 C         2.925300         0.338263        -1.736496
 O         1.595116         0.725171        -1.325012
 O         2.247637         0.172878         0.825894
 H        -0.419650        -0.585393         1.039283
 H        -0.089760         1.208024         0.725846
 H        -0.677745         0.267340        -0.638442
 H         1.803350        -2.341437         0.032070
 H         1.324749        -1.899995        -1.659622
 H         4.031966        -1.669937        -1.403582
 H         4.121780        -0.481409         1.078130
 H         3.711389         1.980618        -0.334108
 H         5.083198         0.927846        -1.023645
 H         3.136430         0.567728        -2.851837
