19
Iteration:  4913charge 0 multiplicity 1
 C        -0.129995         0.198411         0.292224
 C         1.312301        -0.111125        -0.179173
 C         1.738168        -1.496257        -0.718633
 C         3.189086        -1.030659        -1.005755
 C         3.572899        -0.196265         0.178770
 C         3.911989         0.983159        -0.680435
 C         3.024608         0.318256        -1.728462
 O         1.605057         0.709479        -1.346612
 O         2.289724         0.221161         0.774043
 H        -0.474917        -0.064514         1.309745
 H        -0.475274         1.232312         0.253689
 H        -0.733763        -0.335272        -0.493213
 H         1.600282        -2.303065         0.032701
 H         1.112521        -1.844128        -1.625915
 H         3.852847        -1.821642        -1.419438
 H         4.205643        -0.882239         0.780205
 H         3.612559         1.972152        -0.249611
 H         4.948729         1.001810        -1.057004
 H         3.217271         0.433141        -2.737606
