19
Iteration:  2589
 C        -0.089356         0.181209         0.357877
 C         1.346682        -0.104264        -0.245251
 C         1.747444        -1.474748        -0.720437
 C         3.206158        -1.081851        -0.946164
 C         3.559466        -0.213585         0.167487
 C         3.965203         0.958209        -0.736244
 C         2.878403         0.392068        -1.743849
 O         1.558222         0.729780        -1.360648
 O         2.287858         0.153114         0.814840
 H        -0.572879        -0.636843         0.923030
 H        -0.145279         1.153996         0.851947
 H        -0.774185         0.463140        -0.493958
 H         1.520224        -2.297999        -0.179697
 H         1.451728        -1.762207        -1.735409
 H         4.046895        -1.799480        -1.205712
 H         4.399077        -0.413211         0.865375
 H         3.799672         1.945257        -0.298666
 H         4.960535         0.934393        -1.202059
 H         3.013402         0.660481        -2.856823
