19
Iteration:  3316charge 0 multiplicity 1
 C        -0.069750         0.158514         0.229961
 C         1.290765        -0.094955        -0.199032
 C         1.728132        -1.569108        -0.753505
 C         3.117739        -0.988227        -1.016875
 C         3.585488        -0.197174         0.232289
 C         4.061217         0.994722        -0.772603
 C         2.881826         0.434175        -1.724238
 O         1.573380         0.716527        -1.296775
 O         2.267497         0.153248         0.839980
 H        -0.250888        -0.148432         1.277361
 H        -0.486922         1.207788         0.195930
 H        -0.669593        -0.442888        -0.427965
 H         1.653756        -2.302683         0.053869
 H         1.064802        -1.789345        -1.593378
 H         3.975137        -1.799791        -1.111815
 H         4.359653        -0.552542         0.963592
 H         3.954301         2.101389        -0.539091
 H         5.091776         0.697921        -1.112792
 H         3.311177         0.520227        -2.813083
