19
Iteration:   645
 C        -0.114330         0.237071         0.423991
 C         1.282750        -0.103050        -0.114276
 C         1.723628        -1.489540        -0.844929
 C         3.120589        -0.943392        -1.224943
 C         3.558010        -0.267143         0.126016
 C         3.945773         0.984358        -0.751785
 C         2.915263         0.428960        -1.743253
 O         1.637388         0.734376        -1.226267
 O         2.364836         0.028786         0.880320
 H        -0.349182        -0.430486         1.198232
 H        -0.116064         1.263941         0.814408
 H        -0.851897        -0.038783        -0.425182
 H         1.854219        -2.355550        -0.171724
 H         1.123551        -1.770552        -1.687841
 H         3.784596        -1.643155        -1.735328
 H         4.372690        -0.620613         0.784942
 H         3.765539         1.986258        -0.101797
 H         4.945889         0.930577        -1.225715
 H         2.863813         0.559688        -2.825271
