19
Iteration:  3695
 C        -0.064340         0.064659         0.326042
 C         1.280359        -0.090476        -0.259072
 C         1.753951        -1.485028        -0.710770
 C         3.108299        -1.116487        -0.966254
 C         3.563488        -0.184906         0.166094
 C         4.010508         1.023010        -0.749560
 C         3.014920         0.479353        -1.788448
 O         1.614455         0.763033        -1.318951
 O         2.195530         0.153283         0.802198
 H        -0.110843        -0.395943         1.321308
 H        -0.260494         1.173040         0.442651
 H        -0.790289        -0.465556        -0.397133
 H         1.692491        -2.072776         0.206524
 H         1.097388        -1.740517        -1.556230
 H         3.798556        -1.834244        -1.378349
 H         4.226717        -0.701928         0.856747
 H         3.726198         1.911610        -0.229013
 H         5.043410         0.916262        -0.870406
 H         3.215234         0.532806        -2.814282
