19
Iteration:  1640charge 0 multiplicity 1
 C        -0.055307         0.215597         0.309775
 C         1.273267        -0.117031        -0.211261
 C         1.741718        -1.529762        -0.751561
 C         3.132558        -1.020052        -1.094533
 C         3.639564        -0.196142         0.215170
 C         3.906210         0.955877        -0.732196
 C         2.890937         0.392866        -1.718955
 O         1.578473         0.822753        -1.288644
 O         2.347475         0.030749         0.847303
 H        -0.326920        -0.524163         1.100381
 H         0.042058         1.217901         0.684719
 H        -0.552328         0.195652        -0.546779
 H         1.597107        -2.193791         0.069933
 H         1.200525        -1.693120        -1.694136
 H         3.814872        -1.631259        -1.751889
 H         4.311702        -0.662940         0.901853
 H         3.475658         1.928040        -0.360284
 H         4.903662         1.012664        -1.217036
 H         2.978551         0.537046        -2.782980
