19
Iteration:  2763
 C        -0.125997         0.115085         0.232270
 C         1.296210        -0.109456        -0.285975
 C         1.671773        -1.477572        -0.634679
 C         3.145756        -1.063363        -1.054736
 C         3.616037        -0.194706         0.152647
 C         4.007066         0.958710        -0.754315
 C         2.928132         0.496322        -1.726746
 O         1.632668         0.781582        -1.312450
 O         2.306164         0.126678         0.855310
 H        -0.387983        -0.529265         1.101769
 H        -0.197222         1.018260         0.808175
 H        -1.051819        -0.009748        -0.371325
 H         1.745519        -2.142441         0.285652
 H         1.071088        -2.147682        -1.348860
 H         3.817336        -1.836052        -1.264513
 H         4.234547        -0.662497         0.946334
 H         3.955170         2.034567        -0.514367
 H         5.000614         0.725739        -1.103967
 H         2.933633         0.583917        -2.836069
