19
Iteration:   697
 C        -0.084022         0.098286         0.448396
 C         1.271077        -0.039627        -0.174699
 C         1.737043        -1.563294        -0.735640
 C         3.094133        -0.945995        -1.162103
 C         3.483225        -0.285514         0.121009
 C         4.051784         0.915183        -0.752868
 C         2.931977         0.465713        -1.790316
 O         1.616299         0.920195        -1.271099
 O         2.311310         0.056301         0.791143
 H        -0.223310        -0.835448         0.987591
 H        -0.018068         0.836716         1.266246
 H        -0.947683         0.075600        -0.222690
 H         1.810341        -2.205713         0.183222
 H         1.177472        -2.135371        -1.482388
 H         3.939708        -1.578489        -1.499209
 H         4.237017        -0.690473         0.759707
 H         3.944450         1.971518        -0.533661
 H         5.093946         0.693310        -0.923234
 H         2.925751         0.776504        -2.772212
