19
Iteration:  2562
 C        -0.061577         0.177569         0.314074
 C         1.319704        -0.161342        -0.268986
 C         1.684163        -1.561268        -0.669487
 C         3.098842        -1.025279        -1.160548
 C         3.543995        -0.201098         0.257840
 C         3.995572         1.002675        -0.695589
 C         2.978912         0.394710        -1.708262
 O         1.572517         0.681554        -1.395504
 O         2.324252         0.223698         0.880857
 H        -0.406261        -0.456578         1.127138
 H        -0.013388         1.224731         0.670128
 H        -0.844472         0.336971        -0.395363
 H         1.760900        -2.476508         0.054356
 H         1.078983        -1.828758        -1.530805
 H         3.838567        -1.615072        -1.617886
 H         4.302561        -0.572843         0.906102
 H         3.689089         2.025919        -0.388923
 H         4.983511         1.009791        -1.176293
 H         3.153177         0.615227        -2.707910
