19
Iteration:  3854
 C        -0.120306         0.099510         0.256617
 C         1.313532        -0.065146        -0.218390
 C         1.710047        -1.467649        -0.696633
 C         3.137939        -0.982421        -1.091600
 C         3.565736        -0.177483         0.208486
 C         4.010824         1.017964        -0.749873
 C         2.972534         0.360776        -1.695107
 O         1.616824         0.715248        -1.307544
 O         2.247264         0.088036         0.809978
 H        -0.338231        -0.517945         1.093107
 H         0.034494         1.048764         0.740166
 H        -0.827267         0.060864        -0.473942
 H         1.640192        -2.223624         0.140308
 H         1.150043        -1.991436        -1.491379
 H         3.992361        -1.570938        -1.528612
 H         4.167844        -0.391389         1.097800
 H         3.823849         2.073713        -0.469700
 H         5.074027         0.923653        -0.985244
 H         2.978374         0.568175        -2.791240
