19
Iteration:  2663charge 0 multiplicity 1
 C        -0.071546         0.209874         0.295767
 C         1.325597        -0.117567        -0.216662
 C         1.720366        -1.458601        -0.725641
 C         3.157706        -1.012631        -1.046702
 C         3.568563        -0.192817         0.187507
 C         4.041345         0.995635        -0.706810
 C         2.894570         0.361673        -1.687142
 O         1.550410         0.673765        -1.309338
 O         2.305951         0.146379         0.760073
 H        -0.310841        -0.406164         1.193898
 H        -0.536500         1.232520         0.404179
 H        -0.837360        -0.276715        -0.376212
 H         1.654547        -2.295006         0.124818
 H         1.085437        -1.840437        -1.558562
 H         3.916994        -1.663366        -1.644853
 H         4.190845        -0.515570         1.040417
 H         3.997447         1.980903        -0.262831
 H         5.073412         0.812088        -1.079213
 H         3.032686         0.683768        -2.724262
