19
Iteration:   558charge 0 multiplicity 1
 C         0.017355         0.056378         0.381699
 C         1.315122        -0.060353        -0.319024
 C         1.655206        -1.437449        -0.769917
 C         3.076915        -1.018227        -1.094618
 C         3.579222        -0.224398         0.191109
 C         4.015312         0.930498        -0.831300
 C         2.860807         0.429938        -1.671509
 O         1.581523         0.925443        -1.197685
 O         2.358542        -0.001090         0.841782
 H        -0.176341        -0.638755         1.126701
 H        -0.167547         1.024885         0.850956
 H        -0.784757        -0.207825        -0.384117
 H         1.470476        -2.173274         0.005942
 H         1.198959        -1.781563        -1.666546
 H         3.664789        -1.700634        -1.724943
 H         4.265110        -0.589431         0.968853
 H         4.036733         2.002475        -0.471998
 H         4.922873         0.870634        -1.318634
 H         2.897860         0.552371        -2.789571
