19
Iteration:  3397
 C        -0.154032         0.189785         0.315074
 C         1.322919        -0.067394        -0.213341
 C         1.789870        -1.581300        -0.707132
 C         3.188568        -1.014824        -1.066652
 C         3.517840        -0.211314         0.196177
 C         4.003324         0.972280        -0.750922
 C         2.894382         0.365183        -1.749622
 O         1.615443         0.738767        -1.324253
 O         2.239134         0.179971         0.856400
 H        -0.349213        -0.704935         0.930049
 H        -0.009392         1.160374         0.708187
 H        -0.704751         0.225704        -0.659018
 H         1.709411        -2.377067         0.020164
 H         1.406161        -1.950023        -1.653477
 H         4.032952        -1.554141        -1.363724
 H         4.204471        -0.514812         0.976756
 H         3.764053         1.973124        -0.483555
 H         5.035890         0.920675        -0.969036
 H         3.084001         0.554719        -2.766887
