19
Iteration:  4736charge 0 multiplicity 1
 C        -0.089708         0.128201         0.307174
 C         1.306509        -0.060382        -0.221274
 C         1.794111        -1.477645        -0.705171
 C         3.157393        -1.087096        -1.030567
 C         3.549203        -0.189207         0.180768
 C         3.937578         1.019186        -0.720907
 C         3.020058         0.298817        -1.768789
 O         1.628659         0.760980        -1.337897
 O         2.214153         0.173445         0.806388
 H        -0.212907        -0.218916         1.323019
 H        -0.380216         1.191304         0.194542
 H        -0.857279        -0.421837        -0.199110
 H         1.647605        -2.038505         0.202618
 H         1.007541        -1.820738        -1.579725
 H         3.955258        -1.717763        -1.411812
 H         4.133339        -0.534171         1.026937
 H         3.591556         1.873847        -0.174500
 H         4.988901         1.069906        -1.062319
 H         3.148654         0.346284        -2.780097
