19
Iteration:   329
 C        -0.030555         0.132903         0.403467
 C         1.361665        -0.061611        -0.206274
 C         1.737593        -1.562886        -0.717282
 C         3.078463        -1.043880        -1.168038
 C         3.540984        -0.314190         0.122893
 C         3.925131         0.927745        -0.778313
 C         2.897505         0.476663        -1.731608
 O         1.603410         0.896011        -1.220387
 O         2.338829         0.117409         0.789025
 H        -0.280857        -0.775049         0.960835
 H        -0.105962         0.872702         1.170355
 H        -0.760946         0.188526        -0.326999
 H         1.634853        -2.128201         0.175691
 H         1.240603        -2.107488        -1.460740
 H         3.927894        -1.604378        -1.622211
 H         4.343691        -0.773585         0.730861
 H         3.490681         1.938905        -0.451550
 H         4.939271         0.965810        -1.001566
 H         2.973500         0.817345        -2.837884
