19
Iteration:  1697
 C        -0.062957         0.114482         0.400272
 C         1.335007        -0.032807        -0.169833
 C         1.767755        -1.398024        -0.781501
 C         3.175473        -1.062775        -1.058071
 C         3.595465        -0.241375         0.161627
 C         3.929066         0.937747        -0.658000
 C         2.889131         0.381564        -1.710192
 O         1.544275         0.764784        -1.319494
 O         2.322463         0.152318         0.739281
 H        -0.312998        -0.611612         1.199014
 H        -0.260336         1.195402         0.641564
 H        -0.645768        -0.186902        -0.487326
 H         1.354065        -2.255333        -0.247773
 H         1.244833        -1.766677        -1.683572
 H         3.895303        -1.781223        -1.433087
 H         4.148927        -0.772942         0.937136
 H         4.053322         1.988359        -0.312341
 H         4.860227         0.790371        -1.264780
 H         2.855670         0.607305        -2.740988
