19
Iteration:  2055charge 0 multiplicity 1
 C        -0.155852         0.249732         0.319363
 C         1.295214        -0.076648        -0.192950
 C         1.737428        -1.601143        -0.867648
 C         3.156726        -1.140339        -0.947483
 C         3.633514        -0.169627         0.162562
 C         3.894482         1.037736        -0.731086
 C         2.893291         0.366897        -1.702597
 O         1.603522         0.827820        -1.253098
 O         2.377023         0.067974         0.816435
 H        -0.279021        -0.564544         1.079280
 H         0.011359         1.347311         0.607001
 H        -0.768261         0.159628        -0.697068
 H         1.469711        -2.443975        -0.214157
 H         1.289209        -1.685166        -1.875638
 H         3.885023        -1.669426        -1.544111
 H         4.320191        -0.506937         0.962325
 H         3.611157         2.008867        -0.393322
 H         4.904545         0.860662        -1.047738
 H         3.017836         0.422288        -2.829770
