19
Iteration:  3718charge 0 multiplicity 1
 C        -0.061956         0.133668         0.279752
 C         1.286363        -0.104257        -0.243399
 C         1.778381        -1.516806        -0.734686
 C         3.123004        -1.022241        -1.087976
 C         3.532758        -0.180166         0.267786
 C         3.918142         0.959081        -0.722274
 C         2.947583         0.382063        -1.640636
 O         1.618160         0.807555        -1.377513
 O         2.306791         0.138057         0.798141
 H        -0.129769        -0.267345         1.299332
 H        -0.380241         1.182542         0.461988
 H        -0.771186        -0.578692        -0.303037
 H         1.614638        -2.211988         0.129456
 H         1.150736        -1.735773        -1.662873
 H         3.928250        -1.577266        -1.521808
 H         4.355254        -0.470391         0.961796
 H         3.616690         1.903332        -0.329658
 H         4.941168         0.839920        -0.986109
 H         3.190859         0.235508        -2.671278
