19
Iteration:  2538
 C        -0.092779         0.220348         0.318087
 C         1.362925        -0.096569        -0.210939
 C         1.758545        -1.447905        -0.681492
 C         3.185649        -1.041054        -1.030640
 C         3.529740        -0.170583         0.222407
 C         3.929933         0.965383        -0.747121
 C         2.910817         0.332411        -1.754247
 O         1.619909         0.817048        -1.313047
 O         2.260458         0.040062         0.747760
 H        -0.211089        -0.418962         1.211360
 H        -0.433968         1.210043         0.564609
 H        -0.833130        -0.147766        -0.428122
 H         1.746198        -2.183385         0.289365
 H         1.246537        -2.031465        -1.527053
 H         3.831818        -1.760347        -1.456766
 H         4.303169        -0.472695         0.968754
 H         3.764434         2.048913        -0.449421
 H         4.949177         0.791857        -1.167115
 H         3.139375         0.369519        -2.821450
