19
Iteration:  2261
 C        -0.074043         0.115506         0.348705
 C         1.249925        -0.104935        -0.154635
 C         1.711247        -1.536857        -0.771959
 C         3.097138        -1.027038        -1.030900
 C         3.510947        -0.160974         0.202257
 C         4.040296         0.926623        -0.752065
 C         2.949129         0.440967        -1.753013
 O         1.620827         0.754425        -1.397359
 O         2.316069         0.196233         0.881095
 H        -0.359547        -0.531735         1.157559
 H        -0.236984         1.164203         0.573658
 H        -0.719688        -0.167889        -0.538611
 H         1.641521        -2.372918        -0.050338
 H         1.053593        -1.942108        -1.564336
 H         3.865970        -1.691376        -1.430886
 H         4.209725        -0.697668         0.859932
 H         4.035687         1.984023        -0.326258
 H         5.148314         0.841469        -1.077676
 H         3.160512         0.630512        -2.867395
