19
Iteration:   808charge 0 multiplicity 1
 C        -0.063245         0.079256         0.477678
 C         1.299281        -0.059358        -0.181048
 C         1.768704        -1.420072        -0.829608
 C         3.110782        -1.000250        -1.101784
 C         3.662783        -0.287650         0.148836
 C         3.950097         0.921016        -0.697689
 C         2.854808         0.370572        -1.667173
 O         1.562562         0.857244        -1.249236
 O         2.350413         0.105787         0.701728
 H        -0.242470        -0.422028         1.377458
 H        -0.264596         1.154929         0.571814
 H        -0.691896        -0.425989        -0.425203
 H         1.472712        -2.271725        -0.196559
 H         1.132247        -1.469195        -1.728721
 H         3.867932        -1.555379        -1.664330
 H         4.326737        -0.724574         0.913823
 H         3.836215         1.950730        -0.318311
 H         4.741632         0.702437        -1.276070
 H         2.825734         0.674060        -2.747038
