19
Iteration:  4095charge 0 multiplicity 1
 C        -0.162576         0.169395         0.263501
 C         1.367119        -0.121992        -0.141197
 C         1.763090        -1.578499        -0.820118
 C         3.169480        -0.994325        -1.093442
 C         3.559982        -0.184994         0.244816
 C         3.967298         0.949496        -0.760959
 C         2.964264         0.394703        -1.729878
 O         1.581773         0.756232        -1.304715
 O         2.273340         0.181793         0.884329
 H        -0.444506        -0.211107         1.204528
 H        -0.259950         1.200201         0.444067
 H        -0.711411        -0.307028        -0.541908
 H         1.694557        -2.235545         0.110134
 H         0.984616        -1.769771        -1.607892
 H         3.931914        -1.605998        -1.584777
 H         4.244569        -0.352257         1.101518
 H         3.938280         1.990030        -0.546387
 H         4.939762         0.630514        -1.014075
 H         3.063324         0.310474        -2.853989
