19
Iteration:  4765charge 0 multiplicity 1
 C        -0.082203         0.170281         0.215970
 C         1.313272        -0.150210        -0.193544
 C         1.728412        -1.578492        -0.801952
 C         3.112407        -1.055394        -0.990165
 C         3.576469        -0.062294         0.286216
 C         4.016346         1.040216        -0.830302
 C         2.935700         0.358660        -1.685949
 O         1.576337         0.715277        -1.353455
 O         2.295273         0.128717         0.927339
 H        -0.462798        -0.214024         1.191711
 H        -0.295143         1.257232         0.201593
 H        -0.851724        -0.159200        -0.571862
 H         1.549827        -2.267727         0.005037
 H         1.091633        -1.684868        -1.521649
 H         3.997964        -1.523858        -1.429726
 H         4.252981        -0.384006         1.094149
 H         4.112463         2.038358        -0.394755
 H         4.891961         0.641915        -1.388789
 H         3.168779         0.377927        -2.831011
