19
Iteration:  4371charge 0 multiplicity 1
 C        -0.108052         0.127718         0.323199
 C         1.309438        -0.077098        -0.247098
 C         1.739433        -1.478113        -0.736075
 C         3.218763        -1.037851        -0.955883
 C         3.498086        -0.232258         0.209723
 C         3.936470         0.944376        -0.733190
 C         2.959833         0.324539        -1.742493
 O         1.668578         0.799634        -1.407313
 O         2.250810         0.177068         0.819469
 H        -0.128733        -0.429614         1.250824
 H        -0.218818         1.163353         0.706418
 H        -1.024131        -0.064281        -0.180532
 H         1.630363        -2.420634        -0.021179
 H         1.175758        -1.790268        -1.624243
 H         3.989179        -1.605002        -1.403703
 H         4.123297        -0.454739         1.066660
 H         3.772286         1.947554        -0.337490
 H         4.946639         0.960297        -1.110055
 H         2.984999         0.473313        -2.829837
