19
Iteration:  1505charge 0 multiplicity 1
 C        -0.089262         0.159959         0.354874
 C         1.308691        -0.111171        -0.241104
 C         1.735109        -1.493452        -0.717284
 C         3.107455        -0.981789        -1.102988
 C         3.565830        -0.207038         0.173766
 C         3.992316         1.001097        -0.749668
 C         2.897562         0.462807        -1.772930
 O         1.586009         0.828127        -1.324127
 O         2.328227        -0.033835         0.907264
 H        -0.434970        -0.390277         1.176804
 H        -0.084734         1.181396         0.726252
 H        -0.802706         0.139520        -0.389924
 H         1.733301        -2.297247         0.070477
 H         1.106102        -1.928418        -1.538317
 H         3.782442        -1.586125        -1.674923
 H         4.429026        -0.627302         0.735366
 H         3.895230         2.025727        -0.321611
 H         5.052954         0.607905        -1.016605
 H         3.088199         0.462808        -2.897061
