19
Iteration:  2316charge 0 multiplicity 1
 C        -0.004353         0.170664         0.336559
 C         1.284286        -0.147234        -0.158188
 C         1.722055        -1.613164        -0.714001
 C         3.090242        -1.021034        -1.150247
 C         3.495294        -0.085950         0.208859
 C         3.923105         1.021632        -0.747510
 C         3.005349         0.354247        -1.823080
 O         1.732141         0.801864        -1.288643
 O         2.192101         0.077340         0.857701
 H        -0.223789        -0.175200         1.287633
 H        -0.032391         1.215017         0.273408
 H        -0.780974        -0.093357        -0.345040
 H         1.856614        -2.275885         0.132700
 H         0.910586        -1.801752        -1.381429
 H         3.857053        -1.698308        -1.576895
 H         4.181151        -0.518865         0.939887
 H         3.571955         1.993239        -0.369889
 H         5.013365         0.919186        -1.030010
 H         3.272967         0.478412        -2.928491
