19
Iteration:  2984
 C        -0.076958         0.187894         0.249219
 C         1.299990        -0.095637        -0.213350
 C         1.728728        -1.636948        -0.724182
 C         3.149972        -1.028227        -1.107786
 C         3.465031        -0.100609         0.229967
 C         3.959189         1.000363        -0.747208
 C         2.973051         0.371860        -1.754343
 O         1.643994         0.757163        -1.295622
 O         2.278890         0.108119         0.882672
 H        -0.456899        -0.486345         1.008293
 H        -0.038733         1.082944         0.963666
 H        -0.865043         0.373939        -0.446867
 H         1.881767        -2.372008         0.114749
 H         1.077874        -2.070273        -1.567216
 H         3.911769        -1.739401        -1.644243
 H         4.310827        -0.198029         1.053053
 H         3.925182         2.088909        -0.551071
 H         5.007082         0.670836        -1.009358
 H         3.096558         0.680123        -2.965509
