19
Iteration:   961charge 0 multiplicity 1
 C        -0.079665         0.093407         0.369754
 C         1.332906        -0.088558        -0.073365
 C         1.720144        -1.473673        -0.852082
 C         3.074103        -0.961830        -1.220437
 C         3.560952        -0.218142         0.189522
 C         3.945838         0.923629        -0.770787
 C         2.879692         0.417422        -1.729892
 O         1.580735         0.774923        -1.298370
 O         2.402365         0.118406         0.969336
 H        -0.281109        -0.540851         1.151778
 H        -0.061506         1.129512         0.451989
 H        -0.750880        -0.094145        -0.507465
 H         1.811585        -2.338522        -0.222175
 H         0.982746        -1.496573        -1.699777
 H         3.795641        -1.739459        -1.502327
 H         4.335597        -0.758436         0.772542
 H         4.008199         2.031015        -0.461503
 H         4.843850         0.750707        -1.306986
 H         2.985331         0.718977        -2.819023
