19
Iteration:  2391charge 0 multiplicity 1
 C        -0.149117         0.111123         0.300245
 C         1.257443        -0.075249        -0.225952
 C         1.769237        -1.550016        -0.649312
 C         3.096060        -0.990984        -1.109167
 C         3.524089        -0.214499         0.189981
 C         4.013736         0.943349        -0.759583
 C         2.963114         0.409633        -1.781170
 O         1.647382         0.826971        -1.396113
 O         2.298103         0.133743         0.922792
 H        -0.348187        -0.660327         1.043143
 H        -0.223516         1.004551         0.940822
 H        -0.808178         0.176361        -0.492934
 H         1.899022        -2.008254         0.382325
 H         1.144355        -2.198640        -1.342294
 H         3.881357        -1.655793        -1.512703
 H         4.330629        -0.598139         0.850846
 H         3.676332         1.925672        -0.445074
 H         5.056911         0.762984        -1.010559
 H         3.174130         0.546029        -2.889745
