19
Iteration:  1675charge 0 multiplicity 1
 C        -0.002490         0.194855         0.412733
 C         1.312142        -0.181620        -0.270967
 C         1.683152        -1.520004        -0.811016
 C         3.103281        -0.970201        -1.058815
 C         3.531996        -0.125198         0.225629
 C         3.982925         0.957131        -0.782740
 C         3.012130         0.421651        -1.729701
 O         1.581719         0.766794        -1.361668
 O         2.290091         0.055080         0.894693
 H        -0.259232        -0.563781         1.204904
 H        -0.028412         1.214038         0.867327
 H        -0.950854         0.081607        -0.106552
 H         1.448780        -2.408772        -0.248851
 H         1.052286        -1.911279        -1.612418
 H         3.792471        -1.644160        -1.591603
 H         4.239046        -0.598257         0.906946
 H         3.835967         2.008685        -0.435334
 H         5.041791         1.010987        -1.038958
 H         3.010055         0.602194        -2.761644
