19
Iteration:  2845
 C        -0.115231         0.220757         0.309584
 C         1.309934        -0.104136        -0.279294
 C         1.763169        -1.498070        -0.635781
 C         3.206686        -1.059593        -1.091600
 C         3.535469        -0.211110         0.149982
 C         3.922331         0.953839        -0.732973
 C         2.913413         0.397962        -1.746044
 O         1.625862         0.738923        -1.327352
 O         2.273134         0.142488         0.881243
 H        -0.349446        -0.557650         1.056066
 H        -0.012607         1.264512         0.767659
 H        -0.819896         0.196519        -0.550955
 H         1.695210        -2.276830         0.204022
 H         1.366742        -1.880841        -1.559709
 H         3.994937        -1.856317        -1.599820
 H         4.225936        -0.643046         0.941105
 H         3.661462         1.938716        -0.291817
 H         4.986891         0.931574        -1.140081
 H         3.042198         0.646682        -2.839843
