19
Iteration:  3358
 C        -0.056003         0.202540         0.309025
 C         1.307877        -0.065728        -0.229531
 C         1.709330        -1.521567        -0.764830
 C         3.174196        -1.044199        -0.961077
 C         3.550724        -0.169327         0.198107
 C         3.934613         1.012869        -0.727495
 C         3.020802         0.346891        -1.744948
 O         1.595626         0.733814        -1.415088
 O         2.280090         0.112948         0.868799
 H        -0.232828        -0.334509         1.283351
 H        -0.437884         1.211205         0.636010
 H        -0.865703        -0.245249        -0.244495
 H         1.598093        -2.357741         0.003012
 H         1.157522        -1.965668        -1.696125
 H         4.039117        -1.632158        -1.514771
 H         4.123749        -0.637106         1.034359
 H         3.601998         1.936104        -0.119322
 H         4.977590         1.118929        -1.190860
 H         2.938953         0.482702        -2.870005
