19
Iteration:  4033
 C        -0.075166         0.146668         0.277309
 C         1.319819        -0.129546        -0.182098
 C         1.694464        -1.488597        -0.745231
 C         3.166855        -1.031788        -1.047598
 C         3.539069        -0.231030         0.209952
 C         3.915746         0.990844        -0.689843
 C         2.998990         0.461003        -1.752280
 O         1.595384         0.649449        -1.356876
 O         2.304599         0.215478         0.828289
 H        -0.364079        -0.727277         0.944576
 H        -0.037920         1.076402         0.843802
 H        -0.940277         0.409388        -0.316283
 H         1.651323        -2.290526        -0.004532
 H         1.197709        -1.677951        -1.763691
 H         3.894979        -1.721571        -1.326629
 H         4.273238        -0.582082         0.927178
 H         3.691953         2.006752        -0.316959
 H         5.023794         0.896333        -1.022949
 H         3.098958         0.422136        -2.816629
