19
Iteration:  2540
 C        -0.106543         0.228180         0.320794
 C         1.369985        -0.102387        -0.203400
 C         1.766237        -1.456391        -0.688700
 C         3.191847        -1.045258        -1.019497
 C         3.523713        -0.178276         0.205411
 C         3.929696         0.960250        -0.741496
 C         2.911155         0.349147        -1.778399
 O         1.618939         0.806549        -1.316031
 O         2.257108         0.052291         0.760534
 H        -0.170827        -0.470218         1.152461
 H        -0.406668         1.256015         0.579476
 H        -0.836731        -0.132923        -0.384535
 H         1.728478        -2.088051         0.192948
 H         1.285184        -2.082169        -1.414780
 H         3.801439        -1.783893        -1.423296
 H         4.273574        -0.503847         0.887161
 H         3.780090         2.009799        -0.405019
 H         4.951665         0.835125        -1.120091
 H         3.149872         0.419015        -2.781245
