19
Iteration:   235
 C        -0.023970         0.247284         0.446319
 C         1.289777        -0.152302        -0.147368
 C         1.755376        -1.531719        -0.783420
 C         3.075547        -0.949199        -1.231754
 C         3.576325        -0.205802         0.119222
 C         3.963191         0.948414        -0.680100
 C         2.895140         0.537855        -1.728615
 O         1.573799         0.755709        -1.378639
 O         2.312893        -0.035284         0.910124
 H         0.007721        -0.178994         1.453782
 H        -0.044366         1.347403         0.706903
 H        -0.982779        -0.203550        -0.050779
 H         1.830572        -2.435182        -0.088338
 H         1.158385        -1.843331        -1.707595
 H         3.723391        -1.535917        -1.851753
 H         4.289955        -0.635119         0.856715
 H         4.020766         1.989197        -0.375502
 H         4.947674         0.636979        -1.134726
 H         3.087659         0.854988        -2.709625
