19
Iteration:  2325charge 0 multiplicity 1
 C        -0.077091         0.183235         0.379398
 C         1.347018        -0.163767        -0.213324
 C         1.731966        -1.426048        -0.753841
 C         3.146504        -1.039136        -1.123626
 C         3.488591        -0.123964         0.207151
 C         3.925002         0.974207        -0.789812
 C         3.006370         0.348033        -1.772138
 O         1.710825         0.761835        -1.315101
 O         2.184591         0.062137         0.872646
 H        -0.201280        -0.202303         1.376603
 H        -0.175550         1.251388         0.534969
 H        -0.736201        -0.158010        -0.296381
 H         1.862894        -2.171560         0.074698
 H         1.169885        -1.992704        -1.552900
 H         3.947195        -1.691356        -1.447097
 H         4.086437        -0.389017         1.088674
 H         3.679233         2.040745        -0.558551
 H         4.995895         0.848421        -0.947031
 H         2.831397         0.508951        -2.866903
