19
Iteration:  4285
 C        -0.061186         0.124265         0.309524
 C         1.283972        -0.046096        -0.225281
 C         1.691896        -1.485659        -0.692508
 C         3.145981        -0.977570        -0.993124
 C         3.519928        -0.200696         0.205384
 C         3.992612         1.012128        -0.728142
 C         3.010693         0.395736        -1.745534
 O         1.648193         0.714419        -1.385721
 O         2.215294         0.087637         0.827329
 H        -0.154083        -0.389084         1.231763
 H        -0.035772         1.187752         0.528970
 H        -0.733798        -0.167474        -0.441867
 H         1.791272        -2.268639         0.175470
 H         1.205070        -1.906830        -1.641070
 H         3.695400        -1.782736        -1.426286
 H         4.175599        -0.636099         0.956264
 H         3.744089         2.069414        -0.601710
 H         4.964768         0.776191        -1.097641
 H         3.129042         0.681209        -2.779151
