19
Iteration:  4224
 C        -0.120659         0.094226         0.236101
 C         1.319767        -0.049985        -0.213361
 C         1.698459        -1.482653        -0.655769
 C         3.149675        -1.023409        -1.053092
 C         3.581452        -0.129121         0.220953
 C         3.940200         0.972928        -0.698075
 C         2.980924         0.340340        -1.783036
 O         1.602758         0.756610        -1.379401
 O         2.314576         0.114909         0.884744
 H        -0.569058        -0.722658         0.834080
 H        -0.179235         1.042445         0.835511
 H        -0.799719         0.402844        -0.643506
 H         1.818429        -2.294298         0.197583
 H         1.108417        -1.913940        -1.473442
 H         3.765179        -1.716081        -1.644523
 H         4.268095        -0.540604         0.960714
 H         3.769851         2.043675        -0.471438
 H         5.034289         0.807116        -0.933767
 H         3.116683         0.541616        -2.855437
