19
Iteration:  3049charge 0 multiplicity 1
 C        -0.116701         0.113307         0.334324
 C         1.304460        -0.113087        -0.194916
 C         1.722194        -1.469016        -0.650841
 C         3.147291        -1.021123        -1.059106
 C         3.493295        -0.233898         0.175452
 C         3.956834         0.964058        -0.761502
 C         2.997038         0.391310        -1.788429
 O         1.655525         0.793970        -1.355422
 O         2.251137         0.160382         0.844737
 H        -0.308407        -0.745522         0.951514
 H         0.014836         1.128261         0.786238
 H        -0.752603         0.153937        -0.544262
 H         1.830195        -2.294834         0.127940
 H         1.170315        -1.825127        -1.606494
 H         4.077091        -1.686997        -1.357853
 H         4.095159        -0.530645         1.089263
 H         3.772484         1.994245        -0.387726
 H         5.042959         0.841246        -1.079826
 H         3.101376         0.382387        -2.933590
