19
Iteration:  1468
 C        -0.033844         0.040473         0.393496
 C         1.339980        -0.197096        -0.185494
 C         1.624138        -1.495603        -0.857038
 C         3.056365        -1.034396        -1.034204
 C         3.586675        -0.191064         0.163969
 C         3.997875         0.958699        -0.693669
 C         2.931265         0.359759        -1.730845
 O         1.584047         0.887973        -1.299786
 O         2.361291         0.200848         0.811456
 H        -0.233989        -0.830315         1.012471
 H         0.090905         0.974898         0.920124
 H        -0.879116         0.065214        -0.398394
 H         1.380175        -2.279542        -0.175928
 H         1.203301        -1.498157        -1.863422
 H         3.793644        -1.589350        -1.667374
 H         4.173707        -0.507321         1.006145
 H         3.977883         1.974178        -0.379708
 H         4.980696         0.894711        -0.999176
 H         2.965622         0.351495        -2.779103
