19
Iteration:    78
 C        -0.115730         0.230190         0.412883
 C         1.257890        -0.183731        -0.191428
 C         1.720466        -1.516598        -0.835274
 C         3.136328        -0.970153        -1.099771
 C         3.650649        -0.264851         0.126576
 C         3.973256         0.985637        -0.753795
 C         2.850127         0.471280        -1.679529
 O         1.613634         0.794616        -1.266616
 O         2.368216         0.045899         0.800634
 H        -0.164529        -0.365974         1.327248
 H        -0.121588         1.235893         0.757977
 H        -0.959244         0.034951        -0.176238
 H         1.694994        -2.372275        -0.170174
 H         1.074612        -1.868817        -1.606569
 H         3.909746        -1.625548        -1.522443
 H         4.316366        -0.843062         0.784788
 H         3.629132         1.912547        -0.191829
 H         4.911242         1.004464        -1.258319
 H         2.933659         0.679159        -2.711321
