19
Iteration:  3850charge 0 multiplicity 1
 C        -0.140937         0.119134         0.288724
 C         1.316015        -0.094736        -0.197519
 C         1.721603        -1.487483        -0.721555
 C         3.177165        -0.994368        -1.057178
 C         3.530998        -0.177562         0.233134
 C         4.036406         1.012327        -0.754819
 C         2.931870         0.363667        -1.682226
 O         1.632242         0.752071        -1.330659
 O         2.240685         0.088321         0.778251
 H        -0.289328        -0.692807         1.100902
 H        -0.067131         1.135283         0.730169
 H        -0.894202         0.132333        -0.567090
 H         1.772754        -2.243495         0.105871
 H         1.076459        -2.054806        -1.397346
 H         3.935708        -1.496041        -1.623737
 H         4.257018        -0.375623         1.061652
 H         3.887917         2.033198        -0.461864
 H         5.055231         0.960061        -1.135684
 H         3.025726         0.523842        -2.743842
