19
Iteration:  3337charge 0 multiplicity 1
 C        -0.068980         0.110579         0.298715
 C         1.251438        -0.119895        -0.228047
 C         1.775565        -1.495300        -0.680451
 C         3.163934        -1.012369        -1.114580
 C         3.520717        -0.151089         0.231661
 C         3.952674         0.960052        -0.721703
 C         2.947529         0.349826        -1.724314
 O         1.655949         0.764417        -1.325020
 O         2.250024         0.139969         0.798627
 H        -0.308020         0.079849         1.351061
 H        -0.099150         1.243293         0.288667
 H        -0.989851        -0.121382        -0.145542
 H         1.732992        -2.302951         0.081917
 H         1.346425        -1.954373        -1.618537
 H         3.876643        -1.850258        -1.560152
 H         4.152440        -0.409572         1.121439
 H         3.774407         2.088818        -0.548995
 H         5.041068         0.655063        -0.888137
 H         3.069018         0.659405        -2.862250
