19
Iteration:  2507
 C        -0.082051         0.155647         0.274348
 C         1.280076        -0.148552        -0.139535
 C         1.665860        -1.487394        -0.824305
 C         3.137305        -1.029290        -1.035200
 C         3.533046        -0.164383         0.171710
 C         4.001800         0.968283        -0.766105
 C         2.959177         0.377039        -1.803907
 O         1.642977         0.686886        -1.266340
 O         2.319470         0.218285         0.904083
 H        -0.328322        -0.139245         1.288082
 H        -0.521445         1.134589         0.475557
 H        -0.730354        -0.421201        -0.389742
 H         1.683834        -2.245202        -0.112184
 H         1.315627        -1.378650        -1.802937
 H         3.865124        -1.774987        -1.142179
 H         4.193754        -0.608225         0.911783
 H         3.887348         2.016883        -0.393267
 H         4.959353         0.663699        -1.180160
 H         2.942597         0.475714        -2.845033
