19
Iteration:  4751
 C        -0.181382         0.176258         0.256545
 C         1.281725        -0.135441        -0.204256
 C         1.715591        -1.466276        -0.704578
 C         3.185223        -0.983596        -1.013818
 C         3.547871        -0.126738         0.245019
 C         3.962900         0.949320        -0.746521
 C         2.970418         0.356974        -1.756721
 O         1.629573         0.690546        -1.352096
 O         2.314581         0.150186         0.873972
 H        -0.196712        -0.183413         1.292911
 H        -0.294978         1.244201         0.278795
 H        -0.797000        -0.422837        -0.424398
 H         1.707264        -2.454985        -0.182221
 H         1.371224        -1.764957        -1.740981
 H         3.819775        -1.848978        -1.311388
 H         4.336172        -0.461228         0.955039
 H         3.776397         2.055204        -0.757879
 H         5.032662         0.831969        -0.923832
 H         2.956410         0.569782        -2.904215
