19
Iteration:  4375charge 0 multiplicity 1
 C        -0.097677         0.120645         0.329224
 C         1.341495        -0.070061        -0.220109
 C         1.728397        -1.500058        -0.748851
 C         3.155761        -1.059410        -0.984503
 C         3.524909        -0.230145         0.230069
 C         3.931588         0.971170        -0.712484
 C         2.940452         0.319914        -1.772584
 O         1.678758         0.790665        -1.419733
 O         2.249858         0.211699         0.835010
 H        -0.236566        -0.459684         1.242562
 H        -0.092540         1.119242         0.715675
 H        -1.005787        -0.114480        -0.267735
 H         1.604867        -2.364751        -0.063004
 H         1.255795        -1.838110        -1.752164
 H         4.061677        -1.645423        -1.321997
 H         4.195621        -0.486584         1.049430
 H         3.646048         1.981294        -0.367270
 H         5.003609         0.846573        -0.983606
 H         3.017750         0.564031        -2.815300
