19
Iteration:  3851
 C        -0.139215         0.114773         0.278934
 C         1.317615        -0.085103        -0.200515
 C         1.717656        -1.480268        -0.716695
 C         3.168849        -0.990162        -1.066352
 C         3.537693        -0.179104         0.227259
 C         4.033006         1.015079        -0.754412
 C         2.940485         0.360792        -1.683675
 O         1.629217         0.742487        -1.325360
 O         2.241247         0.087024         0.783867
 H        -0.298362        -0.660852         1.112228
 H        -0.031557         1.107655         0.728546
 H        -0.868156         0.117867        -0.533646
 H         1.736820        -2.254149         0.119885
 H         1.094989        -2.050607        -1.406004
 H         3.950119        -1.503828        -1.604693
 H         4.242067        -0.369813         1.078612
 H         3.879734         2.031087        -0.470492
 H         5.046785         0.960951        -1.094172
 H         3.011429         0.537271        -2.748302
