19
Iteration:  1858charge 0 multiplicity 1
 C        -0.099435         0.131576         0.295293
 C         1.347647        -0.078432        -0.188295
 C         1.673073        -1.438542        -0.771945
 C         3.127439        -0.993610        -1.060265
 C         3.569395        -0.174271         0.274887
 C         3.998250         0.940247        -0.833644
 C         2.940980         0.318448        -1.790995
 O         1.603417         0.811983        -1.222830
 O         2.328055         0.099102         0.868736
 H        -0.416825        -0.762563         0.934227
 H        -0.467181         1.114775         0.736780
 H        -0.622427        -0.086507        -0.580397
 H         1.696680        -2.370105        -0.192013
 H         1.134506        -1.716933        -1.682031
 H         3.860245        -1.599804        -1.580158
 H         4.311273        -0.395810         1.047131
 H         3.739258         1.972443        -0.517263
 H         4.996163         0.735991        -1.158040
 H         2.787097         0.332095        -2.900208
