19
Iteration:  4083
 C        -0.070157         0.171120         0.286126
 C         1.255898        -0.139593        -0.226618
 C         1.716923        -1.557558        -0.733364
 C         3.143752        -1.073358        -1.062414
 C         3.532549        -0.092230         0.216114
 C         4.022681         0.977881        -0.766252
 C         2.925329         0.397264        -1.728483
 O         1.655937         0.753152        -1.281923
 O         2.251933         0.155288         0.872248
 H        -0.230649        -0.497938         1.086924
 H        -0.306189         1.212994         0.356541
 H        -0.862320        -0.044834        -0.475249
 H         1.682943        -2.474939        -0.069842
 H         1.366870        -1.962352        -1.697717
 H         4.005463        -1.725150        -1.422547
 H         4.251353        -0.542923         0.942981
 H         3.915332         1.998724        -0.420263
 H         4.966213         0.835871        -1.201090
 H         2.966355         0.726927        -2.825318
