19
Iteration:  1005charge 0 multiplicity 1
 C        -0.034715         0.182033         0.472663
 C         1.314300        -0.164766        -0.207741
 C         1.682433        -1.542109        -0.851773
 C         3.092636        -1.031041        -1.180572
 C         3.538681        -0.250635         0.182884
 C         3.946675         1.008359        -0.712129
 C         2.953994         0.456593        -1.714120
 O         1.599352         0.773379        -1.265607
 O         2.337449         0.132891         0.800008
 H        -0.041498        -0.367124         1.355966
 H        -0.101285         1.233448         0.569120
 H        -0.942169        -0.204761        -0.009641
 H         1.859265        -2.242065        -0.057838
 H         1.021509        -1.868100        -1.697584
 H         3.865957        -1.658144        -1.671187
 H         4.240801        -0.753590         0.883641
 H         3.660822         2.071388        -0.356532
 H         5.011780         0.960465        -1.090992
 H         3.113834         0.688318        -2.811711
