19
Iteration:  2531charge 0 multiplicity 1
 C        -0.058260         0.153807         0.303316
 C         1.270527        -0.059988        -0.254728
 C         1.721882        -1.509426        -0.672235
 C         3.140471        -1.034980        -1.052961
 C         3.592664        -0.148345         0.258648
 C         3.939781         0.985886        -0.782802
 C         2.941254         0.303430        -1.693662
 O         1.625717         0.829890        -1.314538
 O         2.292248         0.039986         0.781885
 H        -0.312095        -0.244189         1.281912
 H        -0.297924         1.244470         0.470695
 H        -0.720152        -0.194746        -0.463111
 H         1.738383        -2.164271         0.062234
 H         1.208372        -1.659506        -1.583222
 H         3.904391        -1.649068        -1.536645
 H         4.178346        -0.371405         1.124159
 H         3.768003         2.032851        -0.613791
 H         4.913295         0.740744        -1.184176
 H         2.960160         0.321923        -2.767044
