19
Iteration:  3627charge 0 multiplicity 1
 C        -0.142952         0.174826         0.305190
 C         1.291664        -0.117730        -0.195397
 C         1.734915        -1.580924        -0.699980
 C         3.128216        -1.016946        -1.083639
 C         3.538998        -0.160609         0.181813
 C         3.979773         1.039277        -0.719064
 C         3.016856         0.356759        -1.779577
 O         1.630210         0.782666        -1.406974
 O         2.282298         0.102590         0.916888
 H        -0.488760        -0.710197         0.954433
 H        -0.156253         1.110383         0.961239
 H        -0.728397         0.245299        -0.603760
 H         1.862844        -2.084116         0.194140
 H         1.288678        -2.021150        -1.538215
 H         3.824283        -1.842080        -1.465061
 H         4.237438        -0.223255         0.982808
 H         3.403708         1.942580        -0.411015
 H         5.047817         1.006701        -0.891883
 H         3.146161         0.337651        -2.920671
