19
Iteration:  4150charge 0 multiplicity 1
 C        -0.046993         0.153368         0.351396
 C         1.270508        -0.137143        -0.205919
 C         1.775689        -1.486164        -0.728223
 C         3.160225        -0.999733        -1.098602
 C         3.494645        -0.213214         0.218980
 C         3.959088         0.959375        -0.708013
 C         2.990848         0.375343        -1.760685
 O         1.632944         0.751768        -1.353290
 O         2.225694         0.166629         0.805164
 H        -0.086642        -0.353965         1.288216
 H        -0.277951         1.167896         0.416243
 H        -0.856105        -0.212947        -0.235563
 H         1.750575        -2.083027         0.175364
 H         1.299354        -1.659396        -1.628820
 H         3.789341        -1.784469        -1.409600
 H         4.205971        -0.473049         1.013818
 H         3.651296         1.914502        -0.368851
 H         4.991163         0.889406        -0.915199
 H         3.151877         0.341078        -2.862346
