19
Iteration:  3733
 C        -0.137588         0.148019         0.290104
 C         1.318686        -0.102988        -0.201134
 C         1.719876        -1.437977        -0.783397
 C         3.194353        -1.001740        -1.013676
 C         3.588681        -0.183085         0.194430
 C         4.006397         1.013251        -0.675236
 C         2.970838         0.365718        -1.782806
 O         1.578287         0.657144        -1.334091
 O         2.250084         0.134376         0.868707
 H        -0.262712        -0.214903         1.328308
 H        -0.266394         1.223794         0.264799
 H        -0.871551        -0.252793        -0.333563
 H         1.757391        -2.360910        -0.131744
 H         1.205476        -1.787265        -1.690024
 H         3.818375        -1.796650        -1.479715
 H         4.143438        -0.639505         1.037871
 H         3.924187         2.081165        -0.378470
 H         5.015345         0.918005        -1.169611
 H         2.953772         0.809184        -2.803627
