19
Iteration:  1887charge 0 multiplicity 1
 C        -0.107661         0.176132         0.385274
 C         1.325498        -0.141025        -0.279201
 C         1.682204        -1.582991        -0.653076
 C         3.111003        -1.070112        -1.121971
 C         3.545013        -0.234810         0.175296
 C         3.998560         0.993641        -0.696321
 C         2.983514         0.490944        -1.747297
 O         1.616378         0.809745        -1.350429
 O         2.281068         0.145898         0.819404
 H        -0.123228        -0.526709         1.260899
 H        -0.196554         1.235228         0.674985
 H        -0.964174        -0.161568        -0.315879
 H         1.835299        -2.344490         0.068909
 H         1.108464        -1.985013        -1.448604
 H         3.907631        -1.759412        -1.589289
 H         4.274462        -0.630191         0.910506
 H         3.895093         1.989635        -0.288385
 H         4.964238         0.790994        -1.168545
 H         3.086650         0.785277        -2.828548
