19
Iteration:  4939
 C        -0.028714         0.178921         0.294353
 C         1.283682        -0.213526        -0.299676
 C         1.786277        -1.477065        -0.727510
 C         3.176991        -0.979740        -1.040273
 C         3.540808        -0.064037         0.340282
 C         4.052291         0.882546        -0.752905
 C         2.929222         0.406929        -1.700564
 O         1.581347         0.727369        -1.405530
 O         2.153578         0.134468         0.829815
 H         0.046226         0.002310         1.355768
 H        -0.153724         1.256955         0.317464
 H        -0.906575        -0.326887        -0.025747
 H         1.545069        -2.119690         0.215038
 H         1.090812        -1.946160        -1.576816
 H         3.851466        -1.639773        -1.521126
 H         4.189280        -0.545158         1.074163
 H         4.103819         1.945142        -0.543171
 H         5.056035         0.527741        -1.074609
 H         3.133095         0.509867        -2.843312
