19
Iteration:   669charge 0 multiplicity 1
 C        -0.049940         0.088736         0.387363
 C         1.346240        -0.126618        -0.102724
 C         1.600063        -1.436658        -0.862565
 C         3.121303        -1.042346        -1.117844
 C         3.590768        -0.256753         0.169952
 C         4.008811         0.988297        -0.785551
 C         2.924445         0.414317        -1.723943
 O         1.544855         0.824383        -1.262470
 O         2.385356         0.096941         0.866982
 H        -0.408613        -0.717066         1.021955
 H         0.033006         0.990129         0.994172
 H        -0.750536         0.096488        -0.505391
 H         1.369543        -2.375512        -0.379600
 H         1.044159        -1.396863        -1.805854
 H         3.806931        -1.790896        -1.487540
 H         4.402163        -0.446293         0.908914
 H         3.746214         2.060493        -0.396326
 H         5.037880         0.910481        -1.183795
 H         2.944634         0.640954        -2.873944
