19
Iteration:  4633
 C        -0.154844         0.157959         0.267632
 C         1.267401        -0.102790        -0.215297
 C         1.720940        -1.504567        -0.689616
 C         3.173874        -1.032045        -1.034367
 C         3.572698        -0.115216         0.165731
 C         3.945883         0.969393        -0.682961
 C         2.953099         0.304488        -1.763128
 O         1.637516         0.730653        -1.425964
 O         2.317003         0.187855         0.911906
 H        -0.496452        -0.798798         0.791115
 H        -0.176524         1.027572         0.972499
 H        -0.831042         0.252788        -0.692039
 H         1.801563        -2.357125         0.021110
 H         1.279484        -1.895370        -1.518040
 H         3.951450        -1.807785        -1.325464
 H         4.260756        -0.595218         0.901789
 H         3.694025         1.958449        -0.172643
 H         5.043161         1.061048        -0.929326
 H         3.059532         0.596131        -2.867015
