19
Iteration:  4790charge 0 multiplicity 1
 C        -0.137941         0.177973         0.237029
 C         1.284291        -0.161410        -0.232377
 C         1.830472        -1.528631        -0.638971
 C         3.126924        -1.015640        -1.039570
 C         3.533277        -0.171558         0.238040
 C         3.929894         0.974526        -0.753266
 C         2.951618         0.357463        -1.780622
 O         1.650286         0.753910        -1.301438
 O         2.308623         0.168924         0.803529
 H        -0.487986        -0.497846         1.026516
 H        -0.341957         1.221059         0.627265
 H        -0.833359         0.099191        -0.589759
 H         1.691437        -2.192140         0.171491
 H         1.183934        -1.809961        -1.510592
 H         3.954702        -1.681038        -1.245815
 H         4.169234        -0.539405         1.043463
 H         3.704638         1.985711        -0.404278
 H         4.939470         0.825787        -1.177076
 H         3.065640         0.491917        -2.804296
