19
Iteration:  2575
 C        -0.021834         0.219762         0.299166
 C         1.306424        -0.133241        -0.124354
 C         1.704965        -1.513737        -0.792385
 C         3.114899        -1.040280        -1.042725
 C         3.630208        -0.141079         0.244171
 C         3.950674         1.006159        -0.684499
 C         2.921440         0.384840        -1.680706
 O         1.547657         0.635370        -1.378035
 O         2.315316         0.183995         0.742281
 H        -0.376652        -0.594014         0.946091
 H         0.038812         1.120287         0.945609
 H        -0.589046         0.177050        -0.606878
 H         1.683979        -2.230595        -0.023135
 H         1.022012        -1.671823        -1.577985
 H         3.763524        -1.749219        -1.639381
 H         4.106590        -0.558675         1.103614
 H         3.858939         1.996121        -0.275737
 H         4.966402         0.814797        -1.050378
 H         3.042558         0.457893        -2.741870
