19
Iteration:  2520
 C        -0.105079         0.132499         0.267505
 C         1.314129        -0.120377        -0.234514
 C         1.669817        -1.522429        -0.793522
 C         3.096946        -1.062381        -0.988843
 C         3.589745        -0.111747         0.236203
 C         4.013774         0.978031        -0.830333
 C         2.946503         0.353756        -1.723519
 O         1.608797         0.776442        -1.297437
 O         2.315890         0.142239         0.931503
 H        -0.120057        -0.360047         1.241814
 H        -0.077147         1.249477         0.211112
 H        -0.889819        -0.266199        -0.344077
 H         1.439484        -2.296323        -0.210606
 H         1.089312        -1.805319        -1.642437
 H         3.808581        -1.703496        -1.508031
 H         4.336918        -0.444271         0.935940
 H         3.859640         2.011921        -0.566356
 H         5.047271         0.911451        -1.125760
 H         3.007818         0.497684        -2.790273
