19
Iteration:   225
 C         0.026861         0.223894         0.474635
 C         1.324421        -0.233049        -0.119226
 C         1.747677        -1.456628        -0.890986
 C         3.153510        -0.941875        -1.192267
 C         3.551507        -0.239876         0.226910
 C         3.953987         0.916736        -0.730684
 C         2.874291         0.465177        -1.767847
 O         1.503576         0.763771        -1.267404
 O         2.321184         0.051014         0.834239
 H        -0.206927        -0.104693         1.481308
 H         0.090643         1.337563         0.274344
 H        -0.865950        -0.027442        -0.267297
 H         1.764247        -2.361494        -0.206252
 H         1.053166        -1.594181        -1.787109
 H         3.852123        -1.541194        -1.736928
 H         4.266676        -0.762472         0.875756
 H         3.860103         1.896608        -0.366073
 H         5.011889         0.748912        -1.022526
 H         2.994101         0.815449        -2.781763
