19
Iteration:  1028
 C        -0.015905         0.167174         0.409115
 C         1.368973        -0.113800        -0.121907
 C         1.731613        -1.390404        -0.828517
 C         3.141981        -1.010804        -1.065793
 C         3.599444        -0.214378         0.167434
 C         3.989654         0.967389        -0.714050
 C         2.806194         0.409046        -1.790476
 O         1.501939         0.773032        -1.378626
 O         2.324915         0.009494         0.891029
 H        -0.166657        -0.529296         1.240090
 H        -0.107531         1.219062         0.600882
 H        -0.820909        -0.129760        -0.185663
 H         1.580653        -2.291970        -0.231356
 H         1.319804        -1.364068        -1.861661
 H         3.935938        -1.652187        -1.451998
 H         4.300903        -0.681347         0.921569
 H         3.941487         2.045366        -0.286327
 H         4.924129         0.727802        -1.229067
 H         3.001762         0.624062        -2.847567
