19
Iteration:  2208charge 0 multiplicity 1
 C        -0.075750         0.189594         0.289987
 C         1.311282        -0.097762        -0.140988
 C         1.663279        -1.443533        -0.771093
 C         3.127466        -0.979355        -1.032653
 C         3.569828        -0.198984         0.208663
 C         3.983722         0.993505        -0.745225
 C         2.962339         0.407953        -1.748338
 O         1.579841         0.628049        -1.356099
 O         2.309535         0.124390         0.877981
 H        -0.309392        -0.682528         0.928648
 H         0.023408         1.065969         0.949236
 H        -0.766475         0.251300        -0.701085
 H         1.584551        -2.370805        -0.229254
 H         1.060855        -1.584213        -1.641261
 H         3.877961        -1.736888        -1.379651
 H         4.282952        -0.708982         0.863667
 H         3.943364         2.044562        -0.455278
 H         5.060451         0.922612        -1.022890
 H         3.110222         0.562707        -2.847901
