19
Iteration:  1603
 C        -0.128503         0.074641         0.383439
 C         1.352389        -0.104113        -0.150588
 C         1.708471        -1.436866        -0.717858
 C         3.093646        -0.975089        -1.189018
 C         3.588502        -0.236471         0.177411
 C         4.036438         0.906605        -0.744845
 C         2.944427         0.386483        -1.728870
 O         1.607276         0.796714        -1.271060
 O         2.275372         0.155294         0.815363
 H        -0.527626        -0.598130         1.118274
 H        -0.340540         1.117326         0.683347
 H        -0.796795        -0.067489        -0.582170
 H         1.698053        -2.371277        -0.054780
 H         1.127140        -1.797967        -1.600933
 H         3.813585        -1.572923        -1.708384
 H         4.261058        -0.555081         1.038651
 H         3.912660         1.951691        -0.427914
 H         5.095330         0.765612        -1.167899
 H         3.097880         0.777359        -2.824244
