19
Iteration:  2790charge 0 multiplicity 1
 C        -0.073082         0.129711         0.336650
 C         1.356915        -0.095707        -0.153082
 C         1.706017        -1.431345        -0.764169
 C         3.149806        -1.019823        -1.034741
 C         3.554440        -0.190996         0.202375
 C         3.956781         0.938969        -0.757745
 C         2.942480         0.318831        -1.725240
 O         1.604305         0.758463        -1.337315
 O         2.285769         0.183863         0.803476
 H        -0.514938        -0.772164         0.799880
 H        -0.243320         1.029162         1.006997
 H        -0.708785         0.323974        -0.536318
 H         1.777086        -2.237012        -0.013306
 H         1.245586        -1.599910        -1.719534
 H         3.909400        -1.857892        -1.351461
 H         4.173433        -0.583024         1.028748
 H         3.559370         1.934754        -0.560453
 H         5.057119         0.857259        -0.990685
 H         2.991901         0.297149        -2.835810
