19
Iteration:   805charge 0 multiplicity 1
 C        -0.061615         0.079496         0.463737
 C         1.312734        -0.112781        -0.173186
 C         1.766990        -1.434128        -0.826731
 C         3.129647        -0.983720        -1.085281
 C         3.660294        -0.291521         0.177395
 C         3.953372         0.905011        -0.705292
 C         2.814903         0.403412        -1.663637
 O         1.558803         0.871858        -1.271305
 O         2.342942         0.098885         0.703003
 H        -0.132867        -0.386845         1.442310
 H        -0.281005         1.209894         0.525444
 H        -0.811703        -0.293044        -0.350837
 H         1.477231        -2.317961        -0.169375
 H         1.087922        -1.378517        -1.689874
 H         3.817223        -1.512073        -1.754103
 H         4.369596        -0.593461         0.934871
 H         3.918318         1.817540        -0.257994
 H         4.836028         0.725248        -1.405236
 H         2.983789         0.669854        -2.888634
