19
Iteration:  2726charge 0 multiplicity 1
 C        -0.103362         0.166848         0.300655
 C         1.228789        -0.183042        -0.142665
 C         1.663162        -1.542934        -0.832031
 C         3.145091        -1.074598        -0.979854
 C         3.624336        -0.154877         0.228919
 C         3.988042         0.997359        -0.732943
 C         2.916287         0.418934        -1.710621
 O         1.598470         0.763064        -1.379125
 O         2.347631         0.173229         0.859004
 H        -0.006141        -0.219679         1.293907
 H        -0.067331         1.258542         0.125828
 H        -0.817706        -0.262920        -0.374552
 H         1.563038        -2.457020        -0.088581
 H         1.153529        -1.696232        -1.788855
 H         3.925962        -1.804256        -1.447894
 H         4.375842        -0.552995         0.904861
 H         3.764168         2.012146        -0.382998
 H         5.026419         0.917166        -1.185427
 H         3.000860         0.554856        -2.772646
