19
Iteration:   879
 C        -0.063628         0.163249         0.405655
 C         1.272251        -0.215079        -0.178372
 C         1.650575        -1.518173        -0.859289
 C         3.119293        -0.993821        -1.104603
 C         3.675764        -0.238185         0.144418
 C         3.953740         1.019756        -0.722359
 C         2.836414         0.427451        -1.668018
 O         1.570930         0.795060        -1.266144
 O         2.400389         0.135532         0.821329
 H        -0.551662        -0.463552         1.215155
 H         0.288637         1.022824         1.032536
 H        -0.700309         0.337478        -0.389563
 H         1.496733        -2.459250        -0.305648
 H         1.270996        -1.793068        -1.847502
 H         3.715183        -1.622551        -1.775133
 H         4.426440        -0.746474         0.770921
 H         3.606655         1.939752        -0.287924
 H         5.020011         0.890222        -1.292721
 H         3.159415         0.526107        -2.673073
