19
Iteration:  1662
 C        -0.075330         0.221164         0.434057
 C         1.249434        -0.118479        -0.220857
 C         1.712825        -1.560247        -0.788541
 C         3.126640        -1.027099        -1.149780
 C         3.466017        -0.181996         0.146117
 C         3.952682         1.055644        -0.729119
 C         3.022891         0.398221        -1.829068
 O         1.677953         0.734269        -1.254555
 O         2.263517         0.047031         0.867521
 H        -0.224468        -0.495721         1.297268
 H         0.085322         1.213267         0.846408
 H        -0.806084         0.256789        -0.269661
 H         1.844968        -2.211207         0.069853
 H         1.200342        -1.816787        -1.731865
 H         3.994705        -1.728487        -1.318600
 H         4.214502        -0.600336         0.807811
 H         3.627824         2.124825        -0.480484
 H         5.040239         0.879980        -0.981202
 H         3.100438         0.686710        -2.867140
