19
Iteration:  3585
 C        -0.099418         0.143841         0.298670
 C         1.304924        -0.173631        -0.255363
 C         1.708982        -1.571213        -0.782868
 C         3.103743        -1.089672        -1.032818
 C         3.586214        -0.050397         0.270536
 C         4.072594         0.997155        -0.712928
 C         2.985690         0.334383        -1.670310
 O         1.547571         0.751391        -1.328528
 O         2.269596         0.214593         0.782219
 H        -0.369813        -0.661370         1.074725
 H        -0.160627         1.181026         0.774441
 H        -0.903494         0.161266        -0.445675
 H         1.753901        -2.400719        -0.076858
 H         1.174648        -1.840779        -1.742556
 H         3.904796        -1.694998        -1.586546
 H         4.242588        -0.604018         0.946706
 H         3.919335         2.006380        -0.310491
 H         5.057652         0.888751        -1.059862
 H         2.958485         0.686347        -2.677448
