19
Iteration:    39
 C        -0.050092        -0.003163         0.390690
 C         1.323121        -0.112393        -0.191348
 C         1.652118        -1.432182        -0.790949
 C         3.022682        -0.970249        -1.150517
 C         3.543587        -0.234080         0.157473
 C         4.026660         0.915690        -0.785539
 C         2.902254         0.469046        -1.725656
 O         1.668977         0.869839        -1.250091
 O         2.326023         0.105118         0.870347
 H        -0.008784        -0.522267         1.447920
 H        -0.411358         1.056886         0.451259
 H        -0.807658        -0.568928        -0.227178
 H         1.681543        -2.177141         0.088689
 H         1.026499        -1.631526        -1.706445
 H         3.803317        -1.664082        -1.521607
 H         4.270606        -0.733865         0.844444
 H         4.064692         1.987349        -0.534206
 H         5.025926         0.660889        -1.246121
 H         2.998318         0.669252        -2.832777
