19
Iteration:  3388charge 0 multiplicity 1
 C        -0.030864         0.154107         0.274941
 C         1.297974        -0.089354        -0.139862
 C         1.738862        -1.511221        -0.764394
 C         3.189365        -1.018903        -1.040638
 C         3.532309        -0.158186         0.231146
 C         3.944135         0.983834        -0.736760
 C         2.987726         0.332252        -1.738705
 O         1.575608         0.714781        -1.333964
 O         2.264196         0.164047         0.792416
 H        -0.507155        -0.419333         1.085019
 H        -0.206856         1.130164         0.757195
 H        -0.734442         0.211870        -0.554928
 H         1.852943        -2.276058         0.040804
 H         1.106433        -1.838457        -1.682477
 H         3.931356        -1.735391        -1.459312
 H         4.100144        -0.515724         1.105538
 H         3.702522         1.933664        -0.254962
 H         4.958555         0.908836        -1.095534
 H         3.053031         0.489583        -2.772631
