19
Iteration:   325charge 0 multiplicity 1
 C        -0.057461         0.129983         0.420357
 C         1.350422        -0.072124        -0.207836
 C         1.724904        -1.553726        -0.725786
 C         3.113493        -1.050454        -1.160555
 C         3.564614        -0.283663         0.116741
 C         3.949518         0.943351        -0.776365
 C         2.858432         0.457005        -1.717973
 O         1.625639         0.926998        -1.225066
 O         2.315406         0.084175         0.783774
 H        -0.321992        -0.862025         0.988309
 H        -0.128578         0.940909         1.200925
 H        -0.866882         0.193785        -0.381902
 H         1.670572        -2.066981         0.280866
 H         1.277366        -2.251513        -1.524825
 H         3.933717        -1.621016        -1.643433
 H         4.270001        -0.724579         0.788772
 H         3.772277         1.945609        -0.502718
 H         5.012517         0.928080        -1.200587
 H         2.884473         0.761767        -2.793865
