19
Iteration:  3440charge 0 multiplicity 1
 C        -0.050982         0.096227         0.225174
 C         1.329503        -0.086326        -0.155186
 C         1.706194        -1.513354        -0.736007
 C         3.153197        -1.029916        -0.997816
 C         3.557066        -0.153840         0.209787
 C         3.958060         0.993280        -0.754099
 C         2.920641         0.353938        -1.750242
 O         1.616306         0.734757        -1.339517
 O         2.302697         0.196230         0.877769
 H        -0.311596        -0.809968         0.824380
 H        -0.376745         0.982178         0.801112
 H        -0.776346         0.253527        -0.662562
 H         1.570219        -2.335599        -0.048761
 H         1.139924        -1.528143        -1.640320
 H         3.746224        -1.768651        -1.481204
 H         4.172793        -0.665420         0.942909
 H         3.787997         1.992834        -0.330438
 H         4.997831         0.897999        -1.066728
 H         3.071825         0.429952        -2.910673
