19
Iteration:  1987
 C        -0.116367         0.106125         0.249281
 C         1.377246        -0.131810        -0.210219
 C         1.645283        -1.471383        -0.746551
 C         3.088441        -1.036847        -1.036165
 C         3.622773        -0.198985         0.206103
 C         4.033003         0.984540        -0.719353
 C         2.937627         0.395679        -1.619428
 O         1.506926         0.781012        -1.267547
 O         2.380008         0.152955         0.722863
 H        -0.287753        -0.714310         1.080854
 H        -0.249721         1.157240         0.746541
 H        -0.782358        -0.019562        -0.575483
 H         1.509310        -2.152950         0.026647
 H         1.207158        -1.610557        -1.653257
 H         3.722630        -1.665002        -1.665821
 H         4.246996        -0.567190         1.032449
 H         4.077346         2.011142        -0.316613
 H         4.976879         0.770347        -1.145725
 H         2.939955         0.343476        -2.763195
