19
Iteration:  1890charge 0 multiplicity 1
 C        -0.101395         0.179755         0.387834
 C         1.300266        -0.123312        -0.248865
 C         1.683059        -1.593765        -0.684895
 C         3.122872        -1.042705        -1.139691
 C         3.537276        -0.242429         0.192973
 C         4.000766         0.966436        -0.692079
 C         2.982645         0.497629        -1.756715
 O         1.606702         0.770504        -1.352700
 O         2.291787         0.156050         0.808998
 H        -0.112441        -0.519351         1.324249
 H        -0.245192         1.295049         0.675490
 H        -0.869584        -0.125023        -0.297429
 H         1.912753        -2.275849         0.143937
 H         1.086259        -1.953578        -1.496644
 H         3.838246        -1.719788        -1.611723
 H         4.238737        -0.593719         0.955018
 H         3.932924         1.979400        -0.270072
 H         5.010750         0.915408        -1.033756
 H         3.129527         0.735815        -2.862449
