19
Iteration:  1896charge 0 multiplicity 1
 C        -0.060323         0.184715         0.402103
 C         1.257147        -0.082825        -0.172484
 C         1.722525        -1.562627        -0.759276
 C         3.121202        -0.973911        -1.150750
 C         3.537671        -0.234875         0.205255
 C         4.004499         0.924084        -0.676350
 C         2.969251         0.468621        -1.756652
 O         1.583561         0.695597        -1.358595
 O         2.305800         0.162970         0.782207
 H        -0.166012        -0.340553         1.305965
 H        -0.246791         1.188613         0.623788
 H        -0.854451        -0.112462        -0.365805
 H         1.877773        -2.129469         0.172787
 H         1.039792        -1.960484        -1.554024
 H         3.808911        -1.706017        -1.665577
 H         4.160816        -0.619921         1.038932
 H         3.857620         1.919361        -0.225990
 H         5.132056         0.984414        -0.876531
 H         3.141573         0.622011        -2.804686
