19
Iteration:  2131
 C        -0.089937         0.101644         0.380316
 C         1.319322        -0.119666        -0.180881
 C         1.688817        -1.516300        -0.857123
 C         3.095833        -1.072684        -1.028935
 C         3.506728        -0.195794         0.204365
 C         3.996680         0.965715        -0.748897
 C         2.943659         0.364682        -1.739256
 O         1.653354         0.771259        -1.289409
 O         2.305008         0.235744         0.841019
 H        -0.021473        -0.435325         1.332822
 H        -0.165598         1.215251         0.486332
 H        -0.653522        -0.301912        -0.506352
 H         1.245613        -2.356501        -0.435830
 H         1.362701        -1.280150        -1.823314
 H         3.946636        -1.693336        -1.313179
 H         4.176794        -0.673639         0.938945
 H         3.716587         1.938244        -0.361066
 H         5.025370         0.960907        -1.104472
 H         3.105713         0.446402        -2.854939
