19
Iteration:  1459charge 0 multiplicity 1
 C         0.002349         0.052726         0.379951
 C         1.270375        -0.089912        -0.194859
 C         1.654297        -1.495948        -0.816925
 C         3.087784        -0.978693        -1.018502
 C         3.618853        -0.191170         0.213088
 C         4.020543         0.913678        -0.735513
 C         2.899904         0.422228        -1.724708
 O         1.574905         0.879163        -1.349964
 O         2.325139         0.104500         0.791067
 H        -0.069889        -0.751638         1.001648
 H        -0.095681         0.812151         1.068937
 H        -0.853063         0.010041        -0.290955
 H         1.410694        -2.288044        -0.098849
 H         1.073385        -1.840682        -1.720258
 H         3.827276        -1.682370        -1.392631
 H         4.321842        -0.617820         0.952384
 H         3.823956         1.885749        -0.266172
 H         5.060393         0.782303        -1.205433
 H         3.057414         0.625830        -2.804794
