19
Iteration:  1163
 C        -0.102640         0.187936         0.370845
 C         1.278652        -0.118666        -0.134900
 C         1.673042        -1.541156        -0.776128
 C         3.112235        -1.016925        -1.084258
 C         3.662291        -0.300832         0.157843
 C         3.970938         0.998418        -0.747923
 C         2.890918         0.507184        -1.680680
 O         1.577421         0.799076        -1.317667
 O         2.383574         0.044819         0.793573
 H        -0.235374        -0.344547         1.300582
 H        -0.252531         1.245766         0.590452
 H        -0.990778        -0.077866        -0.349931
 H         1.735159        -2.534329        -0.223635
 H         1.124157        -1.678659        -1.721136
 H         3.869677        -1.693288        -1.579830
 H         4.457792        -0.519407         0.883414
 H         3.688900         2.007386        -0.305347
 H         4.995482         1.038279        -1.203971
 H         3.014588         0.721144        -2.726185
