19
Iteration:  2719
 C        -0.095650         0.186820         0.323566
 C         1.298831        -0.196273        -0.251473
 C         1.680037        -1.459041        -0.804135
 C         3.142200        -1.072529        -0.952489
 C         3.569006        -0.167838         0.200001
 C         3.971134         1.032034        -0.770701
 C         2.970823         0.376616        -1.709431
 O         1.587548         0.719146        -1.336723
 O         2.333913         0.124685         0.842362
 H        -0.173390        -0.078531         1.428413
 H        -0.203062         1.289116         0.331426
 H        -0.905196        -0.385976        -0.212992
 H         1.413815        -2.264339        -0.021417
 H         1.258143        -1.641041        -1.837389
 H         3.812318        -1.842605        -1.358784
 H         4.347876        -0.460289         0.943056
 H         3.745559         1.984481        -0.282990
 H         4.961265         0.997622        -1.225511
 H         3.170212         0.759722        -2.743653
