19
Iteration:  4932
 C        -0.061287         0.178787         0.281803
 C         1.282062        -0.165527        -0.249280
 C         1.735099        -1.563041        -0.726749
 C         3.109039        -1.024407        -1.059599
 C         3.512621        -0.106690         0.321840
 C         4.105036         0.956458        -0.731860
 C         2.938849         0.441422        -1.702102
 O         1.605096         0.690773        -1.424269
 O         2.205312         0.148526         0.823481
 H         0.130019        -0.024815         1.373823
 H        -0.328797         1.301124         0.308811
 H        -1.007226        -0.251276        -0.102556
 H         1.669439        -2.193130         0.106907
 H         1.200150        -1.869664        -1.497826
 H         3.948313        -1.696242        -1.458537
 H         4.345271        -0.325904         1.044212
 H         4.037235         2.030242        -0.441052
 H         5.108353         0.643979        -1.006820
 H         3.074253         0.610656        -2.793762
