19
Iteration:  1794charge 0 multiplicity 1
 C        -0.050392         0.195588         0.439736
 C         1.269937        -0.120693        -0.268833
 C         1.752594        -1.494831        -0.729620
 C         3.154780        -1.035407        -1.096536
 C         3.578120        -0.239792         0.188503
 C         3.892479         0.958839        -0.667617
 C         2.933276         0.466227        -1.811534
 O         1.611691         0.763709        -1.425051
 O         2.284516         0.092222         0.863895
 H        -0.163781        -0.587086         1.212906
 H         0.138738         1.230671         0.825956
 H        -0.820013         0.168393        -0.345049
 H         1.606625        -2.199723         0.189445
 H         1.061807        -2.026383        -1.508565
 H         3.802021        -1.821654        -1.432730
 H         4.281885        -0.701760         0.881141
 H         3.796085         1.971682        -0.112578
 H         5.000037         0.980379        -1.037391
 H         3.191586         0.792391        -2.816252
