19
Iteration:  4501charge 0 multiplicity 1
 C        -0.068378         0.129919         0.282336
 C         1.358559        -0.104191        -0.233541
 C         1.716804        -1.575744        -0.721354
 C         3.099561        -1.047423        -1.012345
 C         3.502239        -0.147533         0.199156
 C         4.021179         0.971535        -0.712472
 C         3.045843         0.446099        -1.735356
 O         1.589385         0.743225        -1.370385
 O         2.212918         0.174580         0.807665
 H        -0.014464        -0.322650         1.307015
 H        -0.163693         1.269149         0.445341
 H        -0.970809        -0.274617        -0.247292
 H         1.756341        -2.179012         0.167430
 H         1.180571        -1.888438        -1.519280
 H         3.886132        -1.752548        -1.062896
 H         4.150970        -0.669793         0.933122
 H         3.674114         2.011550        -0.485226
 H         5.087909         0.765856        -0.972494
 H         3.070490         0.547700        -2.830926
