19
Iteration:  1335
 C        -0.117987         0.115364         0.410762
 C         1.279183        -0.055395        -0.169695
 C         1.753011        -1.487258        -0.825360
 C         3.154356        -1.029783        -1.040921
 C         3.647815        -0.303047         0.200152
 C         4.029982         0.953337        -0.734450
 C         2.885864         0.434084        -1.694598
 O         1.490676         0.857193        -1.387906
 O         2.362879         0.119231         0.839419
 H        -0.274505        -0.774582         1.164597
 H        -0.466374         1.142429         0.826778
 H        -0.786790        -0.057869        -0.418860
 H         1.631857        -2.373685        -0.197683
 H         1.237984        -1.633499        -1.758995
 H         3.944922        -1.639155        -1.554822
 H         4.265563        -0.831454         0.933474
 H         3.885595         2.036373        -0.471972
 H         4.978704         0.694328        -1.216789
 H         2.946410         0.554347        -2.743767
