19
Iteration:   827
 C        -0.064450         0.052942         0.381494
 C         1.330452        -0.130643        -0.156321
 C         1.627648        -1.477035        -0.813047
 C         3.063261        -1.025983        -1.146673
 C         3.549591        -0.241276         0.140239
 C         4.031679         0.985187        -0.783646
 C         2.939537         0.484728        -1.784133
 O         1.594498         0.832551        -1.249684
 O         2.375381         0.104271         0.908705
 H         0.027665        -0.515528         1.271614
 H        -0.313303         1.110975         0.729272
 H        -0.920346        -0.282870        -0.252891
 H         1.629187        -2.312038        -0.042252
 H         0.907135        -1.685114        -1.631027
 H         3.702349        -1.759364        -1.644526
 H         4.306109        -0.596530         0.813655
 H         3.757644         1.843546        -0.263485
 H         5.117733         1.038100        -1.097476
 H         3.143839         0.658978        -2.944892
