19
Iteration:   554
 C         0.015294         0.062166         0.354281
 C         1.268860        -0.068195        -0.313055
 C         1.691132        -1.409664        -0.738478
 C         3.069373        -1.014598        -1.090620
 C         3.596069        -0.253272         0.194668
 C         3.999064         0.931009        -0.820733
 C         2.877779         0.457100        -1.716037
 O         1.566070         0.933129        -1.193476
 O         2.365345        -0.026577         0.825827
 H        -0.228510        -0.704690         1.183210
 H        -0.073899         1.038869         0.824565
 H        -0.778845        -0.107127        -0.291161
 H         1.564222        -2.084346         0.132904
 H         1.251168        -1.905695        -1.652924
 H         3.664311        -1.697266        -1.726873
 H         4.174815        -0.544443         1.045712
 H         4.036992         1.979331        -0.461484
 H         5.050740         0.787602        -1.336529
 H         2.832681         0.543651        -2.738751
