19
Iteration:  1048
 C        -0.068760         0.118331         0.392301
 C         1.270685        -0.092920        -0.250763
 C         1.661273        -1.555198        -0.764781
 C         3.069549        -1.016014        -1.128247
 C         3.613645        -0.192204         0.159600
 C         3.989422         1.008672        -0.783779
 C         2.945211         0.444148        -1.697377
 O         1.609896         0.800739        -1.220269
 O         2.374115         0.057425         0.835790
 H        -0.387402        -0.548303         1.163200
 H        -0.151654         1.141621         0.697263
 H        -0.871327         0.039543        -0.413207
 H         1.643253        -2.307756         0.013024
 H         1.036903        -1.860132        -1.655065
 H         3.779403        -1.667261        -1.679446
 H         4.336633        -0.470157         0.938572
 H         3.703841         2.109964        -0.420122
 H         5.065843         0.800476        -1.268771
 H         2.938801         0.713597        -2.807985
