19
Iteration:  3411
 C        -0.157100         0.175783         0.229356
 C         1.241096        -0.183879        -0.278182
 C         1.817181        -1.584415        -0.685288
 C         3.137101        -1.011690        -0.995142
 C         3.582028        -0.113987         0.218200
 C         3.988804         0.961894        -0.770790
 C         2.972433         0.418835        -1.764572
 O         1.632320         0.800474        -1.314309
 O         2.273953         0.137999         0.872068
 H        -0.523545        -0.588701         0.951716
 H        -0.302616         0.967293         0.997758
 H        -1.011797         0.325882        -0.372294
 H         1.825073        -2.186251         0.288413
 H         1.105260        -1.997659        -1.524836
 H         3.860961        -1.728124        -1.587658
 H         4.290491        -0.664556         0.885187
 H         4.001045         2.036764        -0.434706
 H         4.939883         0.639683        -1.215582
 H         2.945724         0.495390        -2.820968
