19
Iteration:   938
 C        -0.066620         0.118122         0.399439
 C         1.303202        -0.124819        -0.119286
 C         1.656242        -1.532813        -0.807902
 C         3.127087        -1.025062        -1.082277
 C         3.619817        -0.196422         0.131109
 C         4.048324         0.979588        -0.786753
 C         2.883571         0.425722        -1.733462
 O         1.577346         0.837402        -1.177018
 O         2.324629         0.066694         0.747762
 H        -0.207995        -0.700362         0.982799
 H        -0.125535         1.065299         0.836986
 H        -0.789291         0.061698        -0.458907
 H         1.456655        -2.267638        -0.036354
 H         1.139240        -1.645201        -1.773592
 H         3.806947        -1.674410        -1.638153
 H         4.239653        -0.533374         0.956347
 H         3.903984         2.049458        -0.465379
 H         5.052504         0.935012        -1.185555
 H         2.840735         0.772090        -2.820738
