19
Iteration:   322charge 0 multiplicity 1
 C        -0.080493         0.113380         0.437233
 C         1.320723        -0.079091        -0.207410
 C         1.718187        -1.546482        -0.735529
 C         3.135352        -1.050067        -1.147849
 C         3.585365        -0.247467         0.105633
 C         3.977552         0.951623        -0.777753
 C         2.838027         0.441701        -1.723590
 O         1.636857         0.939943        -1.227459
 O         2.303428         0.055021         0.784604
 H        -0.310775        -0.803478         0.944001
 H        -0.124615         0.972964         1.146015
 H        -0.892814         0.230547        -0.386259
 H         1.747333        -2.043890         0.291002
 H         1.260279        -2.233214        -1.521894
 H         3.870191        -1.631732        -1.653993
 H         4.242433        -0.708744         0.904171
 H         3.981081         2.029885        -0.446573
 H         5.015433         0.864242        -1.338617
 H         2.836732         0.667148        -2.727125
