19
Iteration:  3329charge 0 multiplicity 1
 C        -0.087881         0.163929         0.263191
 C         1.324377        -0.180137        -0.227656
 C         1.716968        -1.554043        -0.714740
 C         3.139419        -1.080628        -1.041953
 C         3.510502        -0.079084         0.200165
 C         3.990688         0.964966        -0.740822
 C         2.991601         0.422344        -1.717323
 O         1.635815         0.750088        -1.311749
 O         2.245828         0.159647         0.847856
 H        -0.115007        -0.137852         1.335184
 H        -0.156026         1.258817         0.148158
 H        -0.946211        -0.366181        -0.252451
 H         1.699692        -2.291690         0.064111
 H         1.176683        -1.937510        -1.525334
 H         3.841807        -1.574796        -1.738716
 H         4.127658        -0.453653         1.026747
 H         4.071372         1.948741        -0.300491
 H         4.951803         0.726111        -1.200735
 H         2.820448         0.645810        -2.847447
