19
Iteration:  3650
 C        -0.056637         0.162752         0.214418
 C         1.272528        -0.137701        -0.191976
 C         1.742507        -1.515820        -0.706599
 C         3.208096        -1.028464        -1.009432
 C         3.537232        -0.148401         0.194618
 C         3.982310         0.997903        -0.755207
 C         2.892379         0.369446        -1.701905
 O         1.581358         0.721753        -1.287192
 O         2.277253         0.138172         0.814125
 H        -0.310943        -0.599367         1.010473
 H         0.103474         1.171409         0.726337
 H        -0.694801         0.181344        -0.689864
 H         1.703947        -2.274229         0.000483
 H         1.370617        -1.651497        -1.697521
 H         4.006617        -1.753751        -1.356329
 H         4.088974        -0.489932         1.045658
 H         3.696056         2.007480        -0.487681
 H         4.874770         0.791644        -1.263573
 H         3.085617         0.720483        -2.708055
