19
Iteration:  1294
 C        -0.065480         0.182005         0.330889
 C         1.355252        -0.072121        -0.194852
 C         1.781723        -1.597863        -0.759543
 C         3.118427        -1.060742        -1.142185
 C         3.527516        -0.216222         0.150858
 C         3.902252         0.983432        -0.778624
 C         2.910002         0.375102        -1.753753
 O         1.615577         0.925885        -1.196346
 O         2.290184         0.037169         0.839637
 H        -0.429889        -0.516645         0.971103
 H        -0.031905         1.008840         0.948237
 H        -0.756266         0.275254        -0.463944
 H         1.804951        -2.308550         0.092134
 H         1.107247        -2.022590        -1.514675
 H         3.971974        -1.691224        -1.517646
 H         4.255477        -0.595008         0.859117
 H         3.811293         1.995545        -0.299556
 H         4.944551         1.032916        -1.272902
 H         3.079037         0.552631        -2.791451
