19
Iteration:  4526charge 0 multiplicity 1
 C        -0.190125         0.168862         0.238362
 C         1.303005        -0.097296        -0.165320
 C         1.773587        -1.486705        -0.739073
 C         3.157429        -0.984578        -1.066796
 C         3.614543        -0.156247         0.216527
 C         4.006984         0.950606        -0.725805
 C         2.934327         0.398440        -1.671029
 O         1.617977         0.694499        -1.354626
 O         2.241302         0.132914         0.824022
 H        -0.294758        -0.048964         1.287557
 H        -0.254975         1.219310         0.128008
 H        -0.996896        -0.300511        -0.332404
 H         1.942857        -2.224674         0.163031
 H         1.297314        -1.889394        -1.682799
 H         3.886320        -1.711786        -1.516792
 H         4.235286        -0.374755         1.093632
 H         3.950499         1.975577        -0.336183
 H         4.935813         0.569890        -1.112926
 H         2.958017         0.292407        -2.709673
