19
Iteration:  4349
 C        -0.080726         0.152162         0.289865
 C         1.309644        -0.121506        -0.255242
 C         1.687606        -1.507999        -0.750499
 C         3.078495        -1.027772        -1.043095
 C         3.583204        -0.116096         0.268026
 C         4.070020         1.012933        -0.714903
 C         2.992930         0.343232        -1.727481
 O         1.575053         0.754477        -1.353997
 O         2.248158         0.093156         0.815444
 H        -0.317802        -0.169471         1.296184
 H        -0.228545         1.248353         0.355417
 H        -0.886828        -0.210155        -0.315600
 H         1.693599        -2.292640         0.172594
 H         1.333830        -2.150259        -1.565080
 H         3.780483        -1.740034        -1.400878
 H         4.255536        -0.330757         1.115943
 H         4.094006         2.104347        -0.653215
 H         5.079189         0.675453        -0.908655
 H         2.934926         0.743956        -2.748445
