19
Iteration:  3167charge 0 multiplicity 1
 C        -0.085538         0.089937         0.275503
 C         1.276975        -0.130041        -0.193228
 C         1.735296        -1.457005        -0.775868
 C         3.101370        -1.034704        -1.088950
 C         3.564673        -0.148746         0.351243
 C         4.014053         0.952549        -0.794585
 C         2.929796         0.371848        -1.637000
 O         1.607368         0.726254        -1.318419
 O         2.280722         0.217711         0.803243
 H        -0.285551        -0.502040         1.198249
 H        -0.103213         1.231406         0.531920
 H        -0.806488        -0.133275        -0.550401
 H         1.609963        -2.359361        -0.066316
 H         1.333020        -1.759444        -1.823273
 H         3.834918        -1.752288        -1.656724
 H         4.459100        -0.346442         0.970217
 H         3.909715         2.040122        -0.599216
 H         5.065509         0.751855        -1.108133
 H         2.937375         0.264904        -2.758547
