19
Iteration:  1550
 C        -0.139218         0.198594         0.424584
 C         1.350419        -0.162127        -0.139476
 C         1.722545        -1.440903        -0.860970
 C         3.107940        -1.018405        -1.180239
 C         3.535861        -0.234720         0.182949
 C         3.997815         1.005868        -0.676432
 C         2.957068         0.347988        -1.756512
 O         1.572656         0.742448        -1.361642
 O         2.358532         0.133380         0.918779
 H        -0.347872        -0.356149         1.318658
 H        -0.193678         1.243020         0.691131
 H        -0.763454        -0.041475        -0.341076
 H         1.690322        -2.408020        -0.288035
 H         1.156351        -1.604465        -1.788105
 H         3.919098        -1.688592        -1.446920
 H         4.177214        -0.764685         0.918564
 H         3.539052         1.953734        -0.349794
 H         5.011499         0.882688        -1.182517
 H         3.131692         0.675832        -2.835477
