19
Iteration:  1344charge 0 multiplicity 1
 C        -0.074690         0.095803         0.408758
 C         1.320944        -0.093008        -0.239768
 C         1.733176        -1.472712        -0.800413
 C         3.137441        -1.030766        -1.091798
 C         3.598896        -0.205456         0.241363
 C         3.987865         0.864634        -0.741829
 C         2.893170         0.454900        -1.710661
 O         1.529058         0.858416        -1.313779
 O         2.348540         0.118056         0.767391
 H        -0.376512        -0.590436         1.378416
 H        -0.300558         1.159285         0.931883
 H        -0.875462        -0.216081        -0.328369
 H         1.593792        -2.269197        -0.054150
 H         1.410453        -1.856495        -1.765532
 H         3.770397        -1.663076        -1.716637
 H         4.216698        -0.565099         1.102896
 H         3.962794         1.845778        -0.260327
 H         4.980373         0.775560        -0.996293
 H         3.021853         0.661953        -2.807120
