19
Iteration:   296
 C        -0.099212         0.093384         0.406778
 C         1.325905        -0.148390        -0.104256
 C         1.642188        -1.440893        -0.868787
 C         3.094328        -0.928767        -1.115516
 C         3.550518        -0.152139         0.178572
 C         4.108954         0.901526        -0.873390
 C         2.946845         0.455481        -1.744203
 O         1.520406         0.749156        -1.219793
 O         2.361400         0.069017         0.914996
 H        -0.354760        -0.772402         1.037657
 H        -0.146026         1.046996         0.881354
 H        -0.751837         0.162011        -0.376582
 H         1.487639        -2.305357        -0.279919
 H         1.236539        -1.470157        -1.822100
 H         3.889304        -1.602368        -1.550722
 H         4.265732        -0.647273         0.876652
 H         4.164515         2.054403        -0.835023
 H         5.056942         0.552518        -1.203162
 H         2.814020         0.788866        -2.856452
