19
Iteration:  1789charge 0 multiplicity 1
 C        -0.064142         0.206574         0.443309
 C         1.332417        -0.138771        -0.250704
 C         1.687257        -1.503859        -0.723193
 C         3.145152        -1.018499        -1.111034
 C         3.572907        -0.204864         0.196141
 C         3.929383         0.985609        -0.669438
 C         2.940218         0.462804        -1.815484
 O         1.615264         0.713132        -1.387789
 O         2.274918         0.094722         0.830516
 H        -0.145558        -0.546483         1.227144
 H         0.149817         1.190749         0.797612
 H        -0.807670         0.113675        -0.385813
 H         1.576581        -2.250803         0.000720
 H         1.107073        -1.791177        -1.549077
 H         3.817963        -1.903933        -1.336546
 H         4.264285        -0.747891         0.867852
 H         3.697179         1.910141        -0.211267
 H         4.914679         0.979047        -1.009705
 H         3.268535         0.912940        -2.790383
