19
Iteration:   196
 C        -0.114215         0.105890         0.427536
 C         1.308718        -0.113732        -0.197685
 C         1.613225        -1.495652        -0.841524
 C         3.080763        -1.067394        -1.093378
 C         3.665799        -0.178261         0.160204
 C         3.939026         1.000584        -0.778077
 C         2.906255         0.401698        -1.711041
 O         1.658427         0.878603        -1.247137
 O         2.395426         0.032594         0.849478
 H        -0.164814        -0.563447         1.285573
 H        -0.306104         1.106740         0.800261
 H        -0.776307        -0.213337        -0.364811
 H         1.358103        -2.327361        -0.244998
 H         1.121147        -1.612133        -1.807074
 H         3.659145        -1.634854        -1.846320
 H         4.442919        -0.584108         0.771250
 H         3.560723         1.974851        -0.388971
 H         5.004191         0.961481        -1.065047
 H         3.057267         0.736967        -2.828850
