19
Iteration:  4317charge 0 multiplicity 1
 C        -0.120722         0.172934         0.211394
 C         1.327691        -0.043096        -0.162509
 C         1.760546        -1.444619        -0.752360
 C         3.181614        -1.040460        -1.053640
 C         3.602325        -0.255134         0.214971
 C         3.930064         0.956182        -0.707408
 C         2.930092         0.301035        -1.726207
 O         1.584213         0.736174        -1.277093
 O         2.295240         0.169128         0.834851
 H        -0.352981        -0.123526         1.217779
 H        -0.299325         1.239174         0.009681
 H        -0.735285        -0.253108        -0.538124
 H         1.848803        -2.316960         0.170947
 H         1.257744        -1.736480        -1.754087
 H         3.772855        -1.796110        -1.552702
 H         4.243937        -0.584254         1.041872
 H         3.617069         1.978071        -0.467158
 H         4.948261         1.008190        -1.025076
 H         2.896844         0.598351        -2.778076
