19
Iteration:   284charge 0 multiplicity 1
 C        -0.020785         0.101187         0.403873
 C         1.354034        -0.066238        -0.080726
 C         1.662637        -1.481715        -0.966215
 C         3.103328        -1.047407        -1.142413
 C         3.553184        -0.232294         0.175204
 C         3.972397         0.963460        -0.811294
 C         2.847719         0.420427        -1.739746
 O         1.607743         0.763408        -1.222600
 O         2.366154         0.178972         0.941300
 H        -0.354672        -0.689363         1.133226
 H        -0.273299         1.016894         0.898064
 H        -0.549327        -0.065932        -0.475715
 H         1.548463        -2.411249        -0.470776
 H         0.964626        -1.481549        -1.768895
 H         3.948049        -1.689531        -1.539001
 H         4.252172        -0.739123         0.845243
 H         4.049652         2.013301        -0.398706
 H         4.840867         0.668840        -1.342335
 H         2.929726         0.676458        -2.899607
