19
Iteration:  3471
 C        -0.106447         0.163263         0.326239
 C         1.282907        -0.084686        -0.234637
 C         1.722532        -1.512662        -0.724802
 C         3.228948        -1.043391        -1.044887
 C         3.547496        -0.136465         0.231026
 C         3.988495         1.024022        -0.723417
 C         2.963676         0.338882        -1.734566
 O         1.596822         0.739823        -1.340084
 O         2.262218         0.118143         0.782342
 H        -0.185406        -0.551714         1.136517
 H        -0.192498         1.179591         0.707370
 H        -0.914275        -0.081189        -0.448696
 H         1.621244        -2.291233         0.026804
 H         1.135786        -1.801467        -1.550395
 H         3.720559        -1.765711        -1.572009
 H         4.084824        -0.603692         1.047902
 H         3.744104         1.985996        -0.264483
 H         5.106473         0.992180        -0.925332
 H         3.210512         0.485057        -2.841879
