19
Iteration:  2044
 C        -0.009663         0.219496         0.313644
 C         1.304769        -0.151514        -0.224464
 C         1.682891        -1.514237        -0.817958
 C         3.154036        -1.065254        -0.994281
 C         3.575123        -0.156591         0.173436
 C         3.963171         1.038969        -0.768479
 C         2.932855         0.376736        -1.739618
 O         1.622169         0.798376        -1.295203
 O         2.259119         0.029464         0.870657
 H        -0.402524        -0.469208         1.124175
 H        -0.164390         1.158369         0.945173
 H        -0.972462         0.188900        -0.341974
 H         1.395051        -2.327262        -0.137170
 H         1.309181        -1.782014        -1.823125
 H         3.899184        -1.809382        -1.217470
 H         4.388992        -0.446012         0.853480
 H         3.792871         1.997163        -0.307344
 H         4.943096         1.092211        -1.214540
 H         3.080210         0.439459        -2.860374
