19
Iteration:  1013charge 0 multiplicity 1
 C        -0.011546         0.172913         0.495919
 C         1.321444        -0.089589        -0.180205
 C         1.721443        -1.549945        -0.851053
 C         3.106041        -0.955046        -1.169932
 C         3.552857        -0.228731         0.188571
 C         3.954432         0.942293        -0.714114
 C         2.933659         0.431877        -1.739774
 O         1.558601         0.758529        -1.314930
 O         2.310321         0.100030         0.833913
 H        -0.032382        -0.328477         1.452513
 H        -0.120180         1.264845         0.579743
 H        -0.744413        -0.205917        -0.340757
 H         1.721253        -2.476049        -0.224611
 H         1.017963        -1.698287        -1.686057
 H         3.801800        -1.552306        -1.785142
 H         4.281709        -0.575389         0.884645
 H         3.738899         1.956343        -0.218904
 H         5.160389         0.969134        -0.903033
 H         2.936617         0.484700        -2.879452
