19
Iteration:  1077charge 0 multiplicity 1
 C        -0.057619         0.055573         0.385794
 C         1.343718        -0.103546        -0.140453
 C         1.746713        -1.461173        -0.712502
 C         3.093598        -0.984044        -1.172199
 C         3.552101        -0.310089         0.133851
 C         3.937814         0.937542        -0.783430
 C         2.903599         0.465825        -1.777874
 O         1.605992         0.849671        -1.278592
 O         2.340901         0.117218         0.906312
 H        -0.647401        -0.727446         0.830982
 H        -0.120961         1.099009         0.711054
 H        -0.686718         0.220547        -0.614663
 H         1.908365        -2.176634         0.106899
 H         1.102489        -1.784630        -1.531554
 H         3.852158        -1.686032        -1.583299
 H         4.221853        -0.697852         0.872524
 H         3.776140         1.881210        -0.438033
 H         4.889450         0.737726        -1.200051
 H         2.924583         0.726949        -2.854309
