19
Iteration:  1021charge 0 multiplicity 1
 C         0.031949         0.151837         0.434039
 C         1.337772        -0.054652        -0.125081
 C         1.768111        -1.470703        -0.822234
 C         3.111759        -0.942058        -1.119814
 C         3.596775        -0.194627         0.149156
 C         3.994518         0.926756        -0.680184
 C         2.851901         0.384571        -1.794398
 O         1.513514         0.760877        -1.371657
 O         2.290597         0.031673         0.875432
 H        -0.174926        -0.286932         1.499352
 H        -0.201446         1.243091         0.719473
 H        -0.727375        -0.140723        -0.329524
 H         1.509597        -2.470987        -0.400777
 H         1.223846        -1.457423        -1.756001
 H         3.872137        -1.532424        -1.615820
 H         4.258050        -0.519859         0.956569
 H         3.807773         1.803266        -0.195798
 H         4.990041         0.770189        -1.054156
 H         2.868870         0.556438        -2.846812
