19
Iteration:  4132charge 0 multiplicity 1
 C        -0.084469         0.105563         0.294346
 C         1.330687        -0.053582        -0.242149
 C         1.686289        -1.586674        -0.753407
 C         3.082997        -1.133756        -1.006595
 C         3.611739        -0.151141         0.244450
 C         3.939861         1.041176        -0.707640
 C         2.975825         0.392271        -1.717870
 O         1.634980         0.800597        -1.356856
 O         2.285558         0.138371         0.786764
 H        -0.121951        -0.275618         1.361410
 H        -0.318653         1.219611         0.266464
 H        -0.873786        -0.349162        -0.320288
 H         1.689168        -2.293071         0.165344
 H         0.753753        -2.068824        -1.427615
 H         3.877243        -1.586120        -1.603894
 H         4.332678        -0.565714         0.982244
 H         3.806562         2.091250        -0.313135
 H         5.052798         0.982784        -1.039912
 H         3.166349         0.716860        -2.751557
