19
Iteration:  2850charge 0 multiplicity 1
 C        -0.115981         0.229417         0.288961
 C         1.325786        -0.102454        -0.263492
 C         1.778438        -1.553209        -0.677249
 C         3.151334        -1.074400        -1.121231
 C         3.554639        -0.224675         0.185176
 C         3.914419         0.952218        -0.728577
 C         2.923202         0.414245        -1.730211
 O         1.624038         0.741740        -1.332853
 O         2.299069         0.179403         0.903334
 H        -0.290134        -0.535879         1.047575
 H        -0.112190         1.188310         0.731937
 H        -0.808610         0.078964        -0.541692
 H         1.629794        -2.265528         0.133251
 H         1.192694        -1.985882        -1.555631
 H         3.794621        -1.775301        -1.461870
 H         4.383946        -0.483712         0.816315
 H         3.622481         1.988849        -0.485524
 H         4.970145         0.932068        -0.967436
 H         3.072825         0.687912        -2.749379
