19
Iteration:  3437
 C        -0.040965         0.108523         0.233975
 C         1.346534        -0.093077        -0.160568
 C         1.733071        -1.490196        -0.717043
 C         3.123466        -1.050251        -1.007430
 C         3.565403        -0.139834         0.209399
 C         3.989839         0.991737        -0.738652
 C         2.928426         0.365362        -1.732096
 O         1.599975         0.728533        -1.336007
 O         2.270100         0.163983         0.845050
 H        -0.398600        -0.760744         0.772290
 H        -0.433273         0.920876         0.823252
 H        -0.696592         0.212146        -0.677752
 H         1.496578        -2.236428         0.038555
 H         1.121971        -1.508343        -1.576108
 H         3.860267        -1.668711        -1.487281
 H         4.221506        -0.645371         0.924839
 H         3.761086         2.069850        -0.508376
 H         5.088326         0.851699        -1.058177
 H         2.918403         0.440056        -2.907699
