19
Iteration:  2172
 C        -0.112853         0.262417         0.264477
 C         1.309710        -0.114370        -0.256199
 C         1.788500        -1.585998        -0.657527
 C         3.190868        -1.002440        -0.997139
 C         3.534390        -0.281038         0.162517
 C         3.953651         0.962250        -0.747898
 C         2.917435         0.439406        -1.751556
 O         1.580431         0.838672        -1.312958
 O         2.303513         0.055325         0.822269
 H        -0.341873        -0.527834         1.065352
 H        -0.154342         1.306326         0.737780
 H        -0.938272         0.260685        -0.423893
 H         1.950659        -2.269752         0.258384
 H         1.236852        -2.095215        -1.529042
 H         3.938081        -1.629284        -1.454779
 H         4.249281        -0.789748         0.843775
 H         3.570237         1.975006        -0.276356
 H         5.000013         0.827624        -1.168246
 H         2.972398         0.737157        -2.868699
