19
Iteration:  4796
 C        -0.229675         0.174041         0.280307
 C         1.333880        -0.118909        -0.243970
 C         1.804473        -1.551310        -0.662931
 C         3.134477        -1.036983        -1.044906
 C         3.501239        -0.167363         0.244339
 C         3.898893         0.983129        -0.759112
 C         2.992686         0.343954        -1.764984
 O         1.668381         0.753413        -1.347436
 O         2.338329         0.185553         0.827385
 H        -0.525970        -0.553159         1.060868
 H        -0.291248         1.128355         0.772187
 H        -0.866761         0.100817        -0.639820
 H         1.781613        -2.228240         0.242823
 H         1.054302        -1.920104        -1.402749
 H         3.981567        -1.653287        -1.363247
 H         4.210638        -0.637534         0.959322
 H         3.761407         1.963484        -0.276926
 H         4.923280         0.987985        -1.172751
 H         3.241991         0.532352        -2.911517
