19
Iteration:  1888charge 0 multiplicity 1
 C        -0.106192         0.178210         0.386149
 C         1.318151        -0.136057        -0.270644
 C         1.680360        -1.589203        -0.662706
 C         3.114737        -1.061243        -1.128234
 C         3.541803        -0.238239         0.181688
 C         4.000332         0.985226        -0.694933
 C         2.983856         0.494252        -1.750263
 O         1.613162         0.797026        -1.351341
 O         2.284576         0.149931         0.816460
 H        -0.117412        -0.536879         1.293390
 H        -0.215456         1.268635         0.678138
 H        -0.937660        -0.153020        -0.314396
 H         1.864496        -2.316726         0.083188
 H         1.111885        -1.967522        -1.450905
 H         3.892108        -1.752560        -1.602559
 H         4.265147        -0.615783         0.925563
 H         3.910660         1.983026        -0.283828
 H         4.967329         0.835748        -1.119695
 H         3.102755         0.772811        -2.852020
