19
Iteration:  4483
 C        -0.096213         0.141427         0.346707
 C         1.317117        -0.100325        -0.305097
 C         1.729354        -1.437453        -0.735828
 C         3.200724        -1.068713        -0.992499
 C         3.567855        -0.161429         0.294315
 C         3.912560         0.970661        -0.677650
 C         2.914070         0.253521        -1.726665
 O         1.642940         0.769244        -1.401305
 O         2.277910         0.190783         0.792781
 H        -0.118683        -0.554717         1.145206
 H        -0.340081         1.124280         0.583978
 H        -0.739487        -0.131308        -0.483096
 H         1.582328        -2.182291         0.199036
 H         1.207112        -1.625442        -1.806935
 H         3.814801        -1.689739        -1.714025
 H         4.250986        -0.520826         1.085550
 H         3.674605         1.982744        -0.293477
 H         4.871383         0.916553        -1.138395
 H         3.126004         0.411107        -2.746769
