19
Iteration:  4972
 C        -0.172777         0.139322         0.259552
 C         1.296557        -0.128678        -0.205882
 C         1.657468        -1.537107        -0.731184
 C         3.147472        -1.088980        -1.003301
 C         3.635291        -0.091797         0.207821
 C         3.978668         1.002168        -0.744044
 C         2.993078         0.318705        -1.734885
 O         1.693987         0.726308        -1.338751
 O         2.286299         0.225172         0.860674
 H        -0.284256        -0.445618         1.140709
 H        -0.346550         1.194887         0.311041
 H        -0.831283        -0.301857        -0.471161
 H         1.436039        -2.351873         0.075653
 H         0.971185        -1.680878        -1.686461
 H         3.824306        -1.775101        -1.493290
 H         4.094790        -0.542096         1.050058
 H         3.500131         1.921363        -0.431249
 H         5.036471         1.203733        -1.001890
 H         3.100379         0.453499        -2.883529
