19
Iteration:  2414
 C        -0.049271         0.193307         0.274147
 C         1.282412        -0.103236        -0.221034
 C         1.685570        -1.493389        -0.715063
 C         3.199769        -1.042234        -1.000843
 C         3.557492        -0.137545         0.216340
 C         3.970241         1.022400        -0.805532
 C         2.907820         0.339222        -1.691200
 O         1.599956         0.744362        -1.270070
 O         2.285531         0.063162         0.791715
 H        -0.361988        -0.531902         0.974079
 H        -0.094121         1.073126         0.842922
 H        -0.605955         0.273580        -0.597554
 H         1.492610        -2.383114        -0.043493
 H         1.300526        -1.594750        -1.731429
 H         3.956171        -1.783431        -1.336054
 H         4.347021        -0.280928         0.946039
 H         3.760315         2.040809        -0.523789
 H         4.959382         0.744327        -1.220601
 H         3.034281         0.438516        -2.799961
