19
Iteration:  2682
 C        -0.049499         0.119779         0.353451
 C         1.285010        -0.183560        -0.175836
 C         1.757208        -1.567903        -0.723922
 C         3.074850        -1.035975        -1.062327
 C         3.545514        -0.173663         0.195201
 C         3.919975         0.945331        -0.731739
 C         3.003092         0.479229        -1.787035
 O         1.649773         0.827610        -1.439172
 O         2.264831         0.153427         0.904802
 H        -0.132882        -0.117320         1.397891
 H        -0.071459         1.211427         0.097068
 H        -0.964426        -0.061614        -0.183240
 H         1.663420        -2.380005         0.198939
 H         1.141985        -1.985564        -1.538807
 H         3.846699        -1.822493        -1.312032
 H         4.169822        -0.659049         0.922436
 H         3.719668         1.962706        -0.365362
 H         4.981383         0.886470        -1.121336
 H         3.184902         0.534523        -2.827059
