19
Iteration:  1196charge 0 multiplicity 1
 C        -0.025743         0.089660         0.325246
 C         1.304472        -0.134856        -0.103977
 C         1.703183        -1.445966        -0.771801
 C         3.061393        -0.962723        -1.140667
 C         3.540850        -0.240392         0.194965
 C         3.999651         0.926736        -0.811078
 C         2.932311         0.476156        -1.770607
 O         1.610816         0.805831        -1.219782
 O         2.309292         0.084127         0.854579
 H        -0.164257        -0.333056         1.277930
 H        -0.076674         1.164180         0.420507
 H        -0.830160        -0.315776        -0.430231
 H         1.753630        -2.397529        -0.150400
 H         1.047734        -1.623855        -1.644270
 H         3.873189        -1.637956        -1.544388
 H         4.287741        -0.677326         0.882276
 H         3.911549         2.001637        -0.434420
 H         5.034529         0.710194        -1.219415
 H         2.853197         0.630283        -2.838035
