19
Iteration:  2350charge 0 multiplicity 1
 C        -0.102501         0.132266         0.343867
 C         1.295818        -0.142928        -0.275527
 C         1.670125        -1.529820        -0.780224
 C         3.114475        -1.036136        -0.942633
 C         3.664636        -0.146409         0.233360
 C         4.009792         0.950301        -0.743652
 C         2.944122         0.366983        -1.664763
 O         1.506313         0.809244        -1.401820
 O         2.360463         0.169056         0.841255
 H        -0.293955        -0.481620         1.170070
 H        -0.199474         1.121927         0.637618
 H        -0.761790        -0.122375        -0.480022
 H         1.472000        -2.474286        -0.348787
 H         1.299888        -1.620485        -1.746582
 H         3.953582        -1.547229        -1.468210
 H         4.192509        -0.567378         1.070168
 H         3.976904         1.930751        -0.301225
 H         4.993663         0.841722        -1.325762
 H         2.946286         0.400181        -2.745982
