19
Iteration:  2027
 C        -0.025231         0.144101         0.390721
 C         1.290936        -0.062742        -0.188171
 C         1.747619        -1.445989        -0.774461
 C         3.096126        -0.981006        -1.121818
 C         3.475246        -0.173642         0.269805
 C         3.964509         0.993103        -0.728242
 C         3.008188         0.378805        -1.789391
 O         1.639519         0.715371        -1.352699
 O         2.249627         0.062617         0.839979
 H        -0.236830        -0.640449         1.044062
 H         0.111850         1.076890         0.850906
 H        -0.827218         0.208725        -0.346675
 H         1.774208        -2.261050         0.029356
 H         0.932220        -1.841822        -1.490228
 H         3.849705        -1.576418        -1.717553
 H         4.161922        -0.593998         1.023678
 H         3.683795         2.070457        -0.615866
 H         5.039050         0.591587        -0.904570
 H         3.201423         0.548103        -2.836840
