19
Iteration:   118charge 0 multiplicity 1
 C        -0.022850         0.152996         0.416987
 C         1.355573        -0.088688        -0.140862
 C         1.677572        -1.478140        -0.842226
 C         3.094206        -0.978264        -1.152949
 C         3.587784        -0.226366         0.182035
 C         3.891852         0.975402        -0.750455
 C         2.884562         0.435374        -1.787657
 O         1.628423         0.776832        -1.325158
 O         2.335100         0.012080         0.934916
 H        -0.280814        -0.689754         1.010036
 H         0.069789         0.989847         1.155874
 H        -0.825558         0.337283        -0.389928
 H         1.694497        -2.356170        -0.167808
 H         1.038819        -1.588280        -1.748140
 H         3.867667        -1.572279        -1.603611
 H         4.344970        -0.565862         0.872460
 H         3.687275         1.905541        -0.268829
 H         4.945082         1.014589        -1.230307
 H         3.024649         0.652474        -2.946013
