19
Iteration:   165charge 0 multiplicity 1
 C        -0.022363         0.074563         0.378969
 C         1.351865        -0.077302        -0.193281
 C         1.743634        -1.478960        -0.723220
 C         3.060722        -0.951109        -1.178055
 C         3.532023        -0.260415         0.107153
 C         4.039835         0.887297        -0.772088
 C         2.877726         0.505533        -1.734527
 O         1.580742         0.818700        -1.260457
 O         2.275533         0.123534         0.891135
 H        -0.174523        -0.879967         0.936926
 H        -0.209852         0.811484         1.106269
 H        -0.665462         0.017980        -0.410743
 H         1.815758        -2.188122         0.063358
 H         1.167987        -1.829645        -1.545824
 H         3.783049        -1.541487        -1.800060
 H         4.160938        -0.943258         0.705700
 H         4.074672         1.999711        -0.339123
 H         5.045488         0.522803        -1.088202
 H         2.903430         0.828846        -2.800906
