19
Iteration:  3700charge 0 multiplicity 1
 C        -0.053224         0.050258         0.329485
 C         1.303388        -0.085425        -0.252819
 C         1.711166        -1.538608        -0.715985
 C         3.125957        -1.105793        -0.945594
 C         3.584426        -0.177424         0.183717
 C         3.984007         1.021762        -0.700372
 C         2.967556         0.433381        -1.828456
 O         1.622539         0.830335        -1.338671
 O         2.205273         0.151163         0.797502
 H        -0.005549        -0.404607         1.320900
 H        -0.209440         1.104395         0.255434
 H        -0.734514        -0.362009        -0.358803
 H         1.758413        -2.110524         0.281833
 H         1.078899        -1.800294        -1.602553
 H         3.832543        -1.828368        -1.406195
 H         4.158595        -0.771915         0.974652
 H         3.681731         1.993072        -0.205565
 H         5.121610         0.923046        -0.945116
 H         3.196322         0.641273        -2.964199
