19
Iteration:  3270
 C        -0.044764         0.110183         0.302991
 C         1.317586        -0.108785        -0.221035
 C         1.711136        -1.493761        -0.685614
 C         3.075318        -1.023073        -0.976229
 C         3.446422        -0.152946         0.236960
 C         4.013408         1.021918        -0.762078
 C         3.021878         0.332922        -1.773751
 O         1.634129         0.762191        -1.324398
 O         2.256222         0.143238         0.790197
 H        -0.145351        -0.559440         1.164352
 H        -0.047147         1.141609         0.595312
 H        -0.641072        -0.090234        -0.560404
 H         1.779517        -2.239535         0.144113
 H         1.170036        -1.831938        -1.617848
 H         3.810256        -1.596397        -1.521769
 H         4.077743        -0.772908         0.878958
 H         3.672697         2.035222        -0.414869
 H         5.077336         1.005399        -1.135885
 H         3.112493         0.447486        -2.903074
