19
Iteration:   276
 C        -0.026655         0.092124         0.399205
 C         1.392333        -0.077307        -0.131325
 C         1.701201        -1.489306        -0.883291
 C         3.049600        -1.056420        -1.164491
 C         3.601571        -0.262605         0.142549
 C         3.890680         0.936946        -0.761852
 C         2.859498         0.399332        -1.716390
 O         1.623126         0.835135        -1.214784
 O         2.351242         0.182114         0.863242
 H        -0.209731        -0.639152         1.161692
 H        -0.187576         1.087051         0.793344
 H        -0.738331        -0.078029        -0.387401
 H         1.604542        -2.460689        -0.388562
 H         1.035600        -1.403803        -1.720989
 H         3.751534        -1.741638        -1.669951
 H         4.454591        -0.555542         0.826486
 H         3.826051         1.907511        -0.095232
 H         4.927225         0.909704        -1.177427
 H         2.935933         0.451160        -2.790304
