19
Iteration:  2349charge 0 multiplicity 1
 C        -0.108750         0.134886         0.341077
 C         1.289264        -0.133642        -0.280229
 C         1.680475        -1.532847        -0.778790
 C         3.118712        -1.035470        -0.937936
 C         3.662274        -0.142424         0.231583
 C         4.006211         0.954498        -0.747225
 C         2.951996         0.363729        -1.672854
 O         1.506736         0.808946        -1.397935
 O         2.359264         0.158703         0.845944
 H        -0.257541        -0.439893         1.182448
 H        -0.223087         1.105422         0.660457
 H        -0.743037        -0.103277        -0.432853
 H         1.471609        -2.495815        -0.342505
 H         1.286834        -1.596199        -1.767639
 H         3.955441        -1.544749        -1.457098
 H         4.166896        -0.591886         1.060257
 H         3.965957         1.938430        -0.297307
 H         4.969995         0.808857        -1.331307
 H         2.954582         0.396938        -2.772867
