19
Iteration:  1076
 C        -0.053753         0.057093         0.380595
 C         1.337180        -0.108308        -0.131380
 C         1.754139        -1.460571        -0.715565
 C         3.100447        -0.983126        -1.169188
 C         3.545797        -0.316322         0.123927
 C         3.946219         0.944535        -0.783020
 C         2.896524         0.466210        -1.787001
 O         1.612745         0.854208        -1.274321
 O         2.334696         0.119620         0.901904
 H        -0.660127        -0.736318         0.840388
 H        -0.119321         1.112003         0.705682
 H        -0.674149         0.212015        -0.571432
 H         1.928868        -2.175531         0.117226
 H         1.085114        -1.786234        -1.505473
 H         3.840512        -1.696688        -1.564641
 H         4.212073        -0.720647         0.879191
 H         3.752565         1.866912        -0.426499
 H         4.876360         0.729359        -1.149913
 H         2.890371         0.684728        -2.846200
