19
Iteration:  1760
 C        -0.106425         0.178084         0.341802
 C         1.322075        -0.149324        -0.229368
 C         1.717151        -1.510728        -0.885061
 C         3.150790        -1.039975        -1.034043
 C         3.637598        -0.166443         0.235980
 C         3.953450         0.972270        -0.780778
 C         2.853597         0.328543        -1.736775
 O         1.586254         0.818757        -1.251523
 O         2.337853         0.123541         0.898123
 H        -0.378433        -0.369026         1.333503
 H        -0.102031         1.295891         0.517130
 H        -0.822510        -0.037122        -0.409956
 H         1.568676        -2.390646        -0.152471
 H         1.277283        -1.579571        -1.957444
 H         3.877491        -1.750207        -1.510997
 H         4.377500        -0.625476         0.885233
 H         3.715439         2.015369        -0.336556
 H         4.969397         0.815118        -1.282791
 H         2.999791         0.461854        -2.830439
