19
Iteration:  2025charge 0 multiplicity 1
 C        -0.019539         0.142522         0.385454
 C         1.296521        -0.054285        -0.175349
 C         1.766858        -1.453958        -0.778761
 C         3.089982        -0.992947        -1.142764
 C         3.464402        -0.179844         0.266037
 C         3.955248         0.987186        -0.702488
 C         3.004641         0.379776        -1.794901
 O         1.633416         0.721688        -1.358889
 O         2.261106         0.084876         0.834880
 H        -0.273367        -0.628533         1.060204
 H        -0.006812         1.078053         0.953309
 H        -0.950298         0.191077        -0.335799
 H         1.789928        -2.281342         0.058228
 H         0.913863        -1.928952        -1.482456
 H         3.847018        -1.545541        -1.736130
 H         4.198965        -0.576663         0.987127
 H         3.775125         2.056635        -0.593233
 H         5.012937         0.548867        -0.875834
 H         3.288820         0.502986        -2.805485
