19
Iteration:  3279
 C        -0.087527         0.102372         0.272514
 C         1.346217        -0.051844        -0.221678
 C         1.643125        -1.538559        -0.699709
 C         3.107106        -1.078997        -1.062921
 C         3.568211        -0.163853         0.213327
 C         3.940133         1.001211        -0.737517
 C         3.002473         0.356313        -1.747383
 O         1.680000         0.778720        -1.331652
 O         2.269950         0.190369         0.839008
 H        -0.102919        -0.561153         1.147600
 H        -0.302174         1.118598         0.540348
 H        -0.800617        -0.277891        -0.502779
 H         1.693890        -2.287496         0.141577
 H         1.179080        -1.997187        -1.641199
 H         3.816395        -1.816357        -1.247815
 H         4.196584        -0.547251         1.022706
 H         3.649245         2.031509        -0.507174
 H         5.006878         0.956331        -1.046437
 H         2.837298         0.622408        -2.691038
