19
Iteration:  4575
 C        -0.109542         0.146313         0.314086
 C         1.238911        -0.078611        -0.225801
 C         1.730464        -1.446599        -0.667751
 C         3.209178        -1.028539        -1.065190
 C         3.502930        -0.179683         0.236960
 C         3.964775         1.019748        -0.780611
 C         3.070986         0.340066        -1.749667
 O         1.648740         0.705277        -1.343265
 O         2.231185         0.122209         0.840425
 H        -0.209558        -0.533665         1.191284
 H        -0.375238         1.243319         0.506566
 H        -0.751952        -0.197989        -0.512841
 H         1.784940        -2.179836         0.063457
 H         1.153110        -1.746321        -1.630623
 H         3.890955        -1.784126        -1.338362
 H         4.057472        -0.663544         1.055806
 H         3.560564         1.996442        -0.491849
 H         5.013564         0.913275        -1.155819
 H         3.113145         0.701304        -2.850913
