19
Iteration:  3266charge 0 multiplicity 1
 C        -0.005097         0.121484         0.312999
 C         1.284826        -0.135603        -0.233798
 C         1.758335        -1.473512        -0.691702
 C         3.095805        -0.986151        -0.974278
 C         3.448463        -0.169046         0.224379
 C         4.030072         1.014157        -0.770937
 C         2.990230         0.336166        -1.782893
 O         1.612685         0.752057        -1.325792
 O         2.241367         0.133318         0.794365
 H        -0.317631        -0.533270         1.150049
 H        -0.083092         1.160664         0.656425
 H        -0.772905        -0.001192        -0.534454
 H         1.684982        -2.237026         0.120284
 H         1.087408        -1.779574        -1.536795
 H         3.806245        -1.577289        -1.508028
 H         4.112188        -0.682298         0.928053
 H         3.755648         1.988924        -0.415018
 H         5.080714         0.992866        -1.057249
 H         3.354530         0.275096        -2.771879
