19
Iteration:  4572charge 0 multiplicity 1
 C        -0.094245         0.154486         0.290141
 C         1.239802        -0.089927        -0.202406
 C         1.737628        -1.440745        -0.692623
 C         3.163529        -1.028019        -1.049316
 C         3.535585        -0.153264         0.225350
 C         3.961946         1.032687        -0.765195
 C         3.055841         0.308103        -1.744180
 O         1.666327         0.711099        -1.337580
 O         2.225570         0.121174         0.833802
 H        -0.231337        -0.505460         1.119444
 H        -0.387433         1.146874         0.461426
 H        -0.741117        -0.289590        -0.423962
 H         1.815359        -2.212475         0.150232
 H         0.979085        -1.711537        -1.636451
 H         3.881993        -1.790430        -1.416132
 H         4.155399        -0.660374         0.971769
 H         3.494660         1.947869        -0.524272
 H         4.959316         0.922145        -1.122141
 H         3.211777         0.699245        -2.725256
