19
Iteration:   819
 C        -0.059184         0.068652         0.429953
 C         1.335318        -0.050633        -0.169285
 C         1.646021        -1.439111        -0.836434
 C         3.121937        -1.047553        -1.139988
 C         3.574445        -0.262627         0.119659
 C         3.991070         0.960692        -0.753450
 C         2.921743         0.429321        -1.709624
 O         1.553834         0.829409        -1.220306
 O         2.384563         0.121923         0.816633
 H        -0.113821        -0.542589         1.310537
 H        -0.426352         1.079871         0.620991
 H        -0.860821        -0.363430        -0.338054
 H         1.646385        -2.277087        -0.113906
 H         1.196927        -1.723755        -1.796669
 H         3.792572        -1.786732        -1.602339
 H         4.232168        -0.785156         0.832077
 H         3.809601         1.976983        -0.330753
 H         4.971814         0.968300        -1.064194
 H         2.970200         0.594482        -2.810924
