19
Iteration:  1452
 C        -0.059472         0.061646         0.436359
 C         1.335646        -0.020664        -0.278856
 C         1.682045        -1.460603        -0.765745
 C         3.119127        -1.009882        -1.057179
 C         3.582545        -0.233703         0.218304
 C         4.020084         0.932545        -0.768431
 C         2.902682         0.471866        -1.705102
 O         1.579458         0.831855        -1.350508
 O         2.280252         0.062078         0.803558
 H        -0.118056        -0.885821         1.114244
 H        -0.244350         0.995207         1.090254
 H        -0.798477         0.049207        -0.343438
 H         1.716969        -2.258615         0.028333
 H         1.117680        -1.769748        -1.668094
 H         3.844173        -1.724962        -1.426174
 H         4.322008        -0.697386         0.913454
 H         3.862506         1.946199        -0.317617
 H         5.056181         0.721325        -1.252648
 H         3.097675         0.693957        -2.807833
