19
Iteration:  3369
 C        -0.078211         0.139949         0.300675
 C         1.299924        -0.065036        -0.253618
 C         1.652995        -1.536796        -0.734680
 C         3.127229        -1.055529        -1.031609
 C         3.597291        -0.159804         0.238177
 C         3.936243         1.052604        -0.689458
 C         2.918778         0.364284        -1.700330
 O         1.619646         0.681046        -1.420581
 O         2.330137         0.140466         0.863203
 H        -0.099979        -0.460462         1.244362
 H        -0.015564         1.265276         0.508042
 H        -0.811380        -0.000771        -0.472006
 H         1.398151        -2.370441        -0.015828
 H         1.283790        -1.636618        -1.821244
 H         3.881628        -1.865343        -1.425329
 H         4.389094        -0.408065         0.994373
 H         3.603074         2.128813        -0.435203
 H         5.054163         1.028048        -0.928063
 H         3.273694         0.556774        -2.746619
