19
Iteration:  2760
 C        -0.104288         0.118573         0.226638
 C         1.265801        -0.108112        -0.264554
 C         1.694391        -1.431376        -0.652128
 C         3.159828        -1.048774        -1.065270
 C         3.590219        -0.196342         0.151667
 C         3.991499         0.926324        -0.751890
 C         2.936313         0.498585        -1.730805
 O         1.624012         0.752071        -1.289487
 O         2.305297         0.138128         0.848888
 H        -0.354693        -0.479498         1.098772
 H        -0.207056         1.091937         0.759095
 H        -0.981851        -0.055351        -0.406545
 H         1.786304        -2.179438         0.285439
 H         1.146516        -2.159605        -1.304168
 H         3.904933        -1.931913        -1.297378
 H         4.161996        -0.715295         0.911171
 H         3.944074         1.998322        -0.543965
 H         5.047910         0.721342        -1.113314
 H         2.886025         0.627541        -2.772383
