19
Iteration:  3174charge 0 multiplicity 1
 C        -0.091342         0.100581         0.291865
 C         1.330569        -0.149068        -0.219819
 C         1.742549        -1.490182        -0.768589
 C         3.123588        -1.027419        -0.984867
 C         3.571175        -0.142451         0.249156
 C         4.012666         0.966464        -0.781367
 C         2.925984         0.374375        -1.709442
 O         1.600344         0.756762        -1.317418
 O         2.269821         0.185716         0.816170
 H        -0.420313        -0.533183         1.141138
 H        -0.159997         1.167902         0.585878
 H        -0.671203        -0.070245        -0.606546
 H         1.547303        -2.237267        -0.039553
 H         1.174565        -1.638189        -1.645948
 H         3.732857        -1.738982        -1.529719
 H         4.240556        -0.395561         1.127927
 H         3.915471         1.978204        -0.358564
 H         4.988619         0.742783        -1.168338
 H         2.954871         0.321045        -2.872511
