19
Iteration:  4001charge 0 multiplicity 1
 C        -0.130257         0.217281         0.243499
 C         1.254680        -0.106216        -0.232792
 C         1.773145        -1.610983        -0.699520
 C         3.180399        -1.065046        -1.027523
 C         3.563278        -0.187856         0.222758
 C         3.944515         0.966217        -0.756390
 C         2.940636         0.507730        -1.740971
 O         1.596769         0.793349        -1.336484
 O         2.278685         0.103725         0.857827
 H        -0.339182        -0.575553         1.046352
 H        -0.014235         0.975850         1.022743
 H        -0.918213         0.205198        -0.543597
 H         1.842630        -2.347372         0.063257
 H         1.486412        -2.066577        -1.680841
 H         3.951525        -1.647081        -1.415122
 H         4.289857        -0.432824         0.987278
 H         3.956782         2.024990        -0.423048
 H         5.002896         0.682241        -1.163367
 H         3.018333         0.439904        -2.809674
