19
Iteration:  1510charge 0 multiplicity 1
 C        -0.010865         0.148471         0.340226
 C         1.245799        -0.099133        -0.227696
 C         1.753984        -1.527747        -0.709431
 C         3.100052        -0.980979        -1.117962
 C         3.571033        -0.201232         0.188964
 C         3.978157         1.012729        -0.744334
 C         2.898198         0.440848        -1.723215
 O         1.576279         0.853985        -1.331567
 O         2.344320        -0.048996         0.868209
 H        -0.584614        -0.396324         1.228155
 H         0.065863         1.275390         0.551786
 H        -0.853023         0.145172        -0.518079
 H         1.706516        -2.207869         0.121225
 H         1.068279        -1.904864        -1.442353
 H         3.757972        -1.714053        -1.682086
 H         4.333271        -0.707957         0.772912
 H         4.016807         2.040758        -0.360861
 H         4.984308         0.816066        -1.019016
 H         2.946130         0.518194        -2.780630
