19
Iteration:  3005
 C        -0.112551         0.133798         0.313963
 C         1.327492        -0.130189        -0.210557
 C         1.775658        -1.440063        -0.732907
 C         3.184836        -1.024259        -0.953134
 C         3.581544        -0.193121         0.229271
 C         4.006338         0.940636        -0.784175
 C         2.891875         0.382484        -1.736930
 O         1.588745         0.759118        -1.340948
 O         2.235618         0.146995         0.802685
 H        -0.640419        -0.670446         0.833386
 H        -0.185354         1.027424         1.004310
 H        -0.671818         0.379823        -0.575678
 H         1.613705        -2.128960         0.148661
 H         1.243330        -1.784938        -1.696379
 H         3.957011        -1.653129        -1.486881
 H         4.260758        -0.802483         0.900065
 H         3.765857         1.989987        -0.526933
 H         5.079747         0.855314        -1.107023
 H         3.130240         0.520432        -2.851251
