19
Iteration:    67charge 0 multiplicity 1
 C        -0.110301         0.171569         0.422053
 C         1.290623        -0.165278        -0.140240
 C         1.713977        -1.471116        -0.914758
 C         3.120443        -1.014899        -1.125169
 C         3.640818        -0.275459         0.166959
 C         3.973317         0.950754        -0.721705
 C         2.895361         0.441039        -1.669393
 O         1.475455         0.765577        -1.270683
 O         2.433766         0.134785         0.850869
 H        -0.392290        -0.269047         1.368238
 H        -0.084514         1.241920         0.433580
 H        -0.767077        -0.113852        -0.351612
 H         1.588766        -2.354449        -0.317194
 H         1.285472        -1.414349        -1.895414
 H         3.810851        -1.652229        -1.690866
 H         4.412998        -0.700380         0.826682
 H         3.991590         2.021602        -0.375947
 H         4.904283         0.831857        -1.250257
 H         3.016456         0.622627        -2.700746
