19
Iteration:  3181
 C        -0.080459         0.118071         0.282221
 C         1.338601        -0.115160        -0.201702
 C         1.713567        -1.514311        -0.731463
 C         3.173205        -1.032067        -0.926978
 C         3.580096        -0.132734         0.153089
 C         3.992352         0.970339        -0.743210
 C         2.928607         0.350968        -1.793815
 O         1.589354         0.783046        -1.318950
 O         2.268090         0.147050         0.831143
 H        -0.422766        -0.594401         1.007132
 H        -0.249255         1.088550         0.625752
 H        -0.784951         0.003117        -0.562715
 H         1.588926        -2.306531         0.026857
 H         1.049492        -1.681070        -1.614842
 H         3.921939        -1.680399        -1.304530
 H         4.009415        -0.544734         1.026615
 H         3.923566         1.982416        -0.332931
 H         5.000228         0.782896        -1.208723
 H         3.101243         0.590608        -2.779914
