19
Iteration:  4046charge 0 multiplicity 1
 C        -0.118601         0.182350         0.339490
 C         1.346655        -0.043737        -0.226739
 C         1.768135        -1.553146        -0.761744
 C         3.123696        -1.081488        -1.050434
 C         3.568095        -0.145616         0.231540
 C         3.915586         0.974069        -0.690576
 C         2.934051         0.342439        -1.761734
 O         1.636032         0.739010        -1.450894
 O         2.280781         0.165808         0.901614
 H        -0.327748        -0.720508         1.052403
 H        -0.140188         0.999637         1.098839
 H        -0.716806         0.044914        -0.556760
 H         1.739235        -2.377745        -0.102519
 H         1.116308        -1.679245        -1.598575
 H         3.824495        -1.769454        -1.512457
 H         4.213011        -0.570655         0.983271
 H         3.641807         1.969743        -0.252501
 H         5.005116         0.986577        -1.066390
 H         3.131366         0.803756        -2.683235
