19
Iteration:  2818
 C        -0.050670         0.225419         0.376056
 C         1.292452        -0.160249        -0.278634
 C         1.665312        -1.598502        -0.756525
 C         3.130600        -1.053963        -1.049257
 C         3.545518        -0.096863         0.240452
 C         4.008360         0.987453        -0.750026
 C         2.952259         0.400599        -1.685646
 O         1.576144         0.723795        -1.396122
 O         2.317942         0.145297         0.877691
 H        -0.458243        -0.662972         0.865703
 H        -0.001868         1.091663         0.978038
 H        -0.721389         0.469057        -0.464129
 H         1.701451        -2.371964        -0.036226
 H         1.317507        -1.835145        -1.800053
 H         3.792250        -1.663659        -1.502742
 H         4.247419        -0.428851         1.021027
 H         3.779093         2.045076        -0.574464
 H         5.007543         0.758431        -1.045685
 H         3.109532         0.506635        -2.767115
