19
Iteration:   149
 C        -0.120379         0.039838         0.379099
 C         1.278189        -0.162054        -0.158380
 C         1.693950        -1.519495        -0.843331
 C         3.088913        -1.028014        -1.141603
 C         3.631912        -0.240674         0.195199
 C         4.054249         0.930555        -0.733145
 C         2.880534         0.487002        -1.665750
 O         1.525091         0.862518        -1.201398
 O         2.405514         0.179145         0.722519
 H        -0.504193        -0.710576         1.082248
 H         0.141698         0.949625         1.042609
 H        -0.807729         0.400163        -0.526049
 H         1.724857        -2.411280        -0.121807
 H         0.923708        -1.871934        -1.595793
 H         3.823499        -1.664885        -1.594009
 H         4.342143        -0.478464         1.001346
 H         4.076692         1.837934        -0.259027
 H         4.874128         0.729243        -1.451126
 H         3.033317         0.733474        -2.765281
