19
Iteration:  3861charge 0 multiplicity 1
 C        -0.045107         0.103145         0.235193
 C         1.292251        -0.104242        -0.254763
 C         1.708765        -1.470664        -0.682804
 C         3.099895        -1.015686        -1.100857
 C         3.595662        -0.143799         0.177403
 C         3.951298         1.019490        -0.719527
 C         3.027659         0.397229        -1.764530
 O         1.592826         0.699263        -1.291812
 O         2.275603         0.111370         0.885108
 H        -0.413940        -0.516151         1.143074
 H        -0.108060         1.141279         0.677683
 H        -0.854233        -0.003183        -0.547688
 H         1.570844        -2.136957         0.197380
 H         1.244195        -1.664952        -1.659905
 H         3.831205        -1.756550        -1.329555
 H         4.173863        -0.617685         1.016169
 H         3.692414         2.012806        -0.429563
 H         5.004698         0.833360        -0.885656
 H         3.007758         0.572149        -2.822713
