19
Iteration:  4673
 C        -0.124186         0.163811         0.236575
 C         1.300117        -0.150615        -0.221328
 C         1.764759        -1.597148        -0.717952
 C         3.123353        -1.017330        -1.003501
 C         3.538351        -0.109715         0.199005
 C         3.971645         0.956922        -0.750247
 C         2.978055         0.382444        -1.749219
 O         1.624794         0.738029        -1.279022
 O         2.267283         0.184566         0.855341
 H        -0.399945        -0.466923         1.059808
 H        -0.202004         1.221852         0.570434
 H        -0.712056         0.176860        -0.643643
 H         1.595124        -2.368791         0.005719
 H         1.360169        -1.788090        -1.820543
 H         3.910151        -1.687045        -1.312982
 H         4.335706        -0.192277         0.954799
 H         3.812106         1.976582        -0.408081
 H         4.969835         0.786814        -1.145303
 H         3.037660         0.299982        -2.861447
