19
Iteration:  1877charge 0 multiplicity 1
 C        -0.057873         0.084662         0.288417
 C         1.283074        -0.095705        -0.243782
 C         1.746033        -1.517659        -0.673746
 C         3.092063        -1.090683        -1.020817
 C         3.594200        -0.172765         0.117776
 C         3.979717         0.989503        -0.763762
 C         2.917819         0.414996        -1.688047
 O         1.645366         0.893625        -1.308539
 O         2.268662         0.067298         0.810434
 H        -0.218768        -0.538628         1.281855
 H        -0.032607         1.157893         0.690523
 H        -1.016665        -0.006051        -0.354513
 H         1.489306        -2.111383         0.176612
 H         1.164532        -1.878882        -1.453771
 H         3.889537        -1.834725        -1.395623
 H         4.230938        -0.720183         0.832766
 H         3.884854         2.006315        -0.440281
 H         4.885291         0.750936        -1.231354
 H         3.046847         0.716154        -2.796665
