19
Iteration:  3815
 C        -0.035733         0.097595         0.280139
 C         1.319079        -0.104061        -0.233630
 C         1.715293        -1.461289        -0.788187
 C         3.189700        -1.040140        -1.015224
 C         3.515763        -0.145129         0.259373
 C         4.023415         0.962717        -0.725609
 C         2.925911         0.382610        -1.704167
 O         1.579890         0.685742        -1.327888
 O         2.258407         0.191081         0.808996
 H        -0.309714        -0.781592         0.915876
 H        -0.138011         0.966106         1.009658
 H        -0.916100         0.250079        -0.511719
 H         1.755048        -2.144200         0.017414
 H         0.985224        -1.541185        -1.613302
 H         3.948109        -1.546884        -1.611467
 H         4.186381        -0.541016         1.057301
 H         3.808972         1.971467        -0.340637
 H         5.021784         0.767776        -1.170508
 H         3.011226         0.523127        -2.788223
