19
Iteration:  4581charge 0 multiplicity 1
 C        -0.149875         0.140803         0.336030
 C         1.294039        -0.071087        -0.261353
 C         1.731164        -1.459951        -0.673261
 C         3.235630        -1.023832        -1.057488
 C         3.466556        -0.211076         0.252453
 C         3.977850         0.994224        -0.773728
 C         3.050718         0.399915        -1.783888
 O         1.615127         0.711188        -1.362537
 O         2.242275         0.133543         0.850357
 H        -0.235962        -0.460501         1.224227
 H        -0.246969         1.157752         0.601781
 H        -0.832272        -0.041425        -0.499289
 H         1.673211        -2.314586         0.116530
 H         1.389802        -1.914633        -1.640603
 H         3.993583        -1.836984        -1.291896
 H         4.049409        -0.570865         1.109863
 H         3.823298         2.043089        -0.459852
 H         5.016575         0.960305        -1.072581
 H         2.983155         0.497059        -2.826021
