19
Iteration:  4187charge 0 multiplicity 1
 C        -0.093897         0.176678         0.252684
 C         1.322952        -0.191467        -0.196568
 C         1.744164        -1.471675        -0.729205
 C         3.108230        -1.027497        -0.974985
 C         3.593299        -0.148836         0.230645
 C         3.963552         1.006064        -0.752320
 C         2.985789         0.363918        -1.715121
 O         1.560093         0.738881        -1.303045
 O         2.287610         0.135205         0.768952
 H        -0.494710        -0.515513         1.019733
 H         0.023458         1.172511         0.734324
 H        -0.680144         0.102118        -0.666456
 H         1.565209        -2.349862        -0.053614
 H         1.039059        -1.906200        -1.599448
 H         3.728765        -1.594727        -1.724193
 H         4.327812        -0.260707         1.061819
 H         3.877394         2.080137        -0.402968
 H         5.065982         0.755386        -0.865536
 H         3.100367         0.306633        -2.803638
