19
Iteration:  1723charge 0 multiplicity 1
 C        -0.101522         0.050301         0.292169
 C         1.291295        -0.108264        -0.178220
 C         1.660397        -1.519571        -0.716860
 C         2.988425        -0.969315        -1.177341
 C         3.628385        -0.176955         0.176776
 C         4.066176         0.966178        -0.711413
 C         2.949976         0.399012        -1.737269
 O         1.638993         0.814613        -1.293376
 O         2.330438         0.157347         0.876038
 H        -0.266705        -0.512352         1.219845
 H        -0.179397         1.136732         0.458876
 H        -0.886558        -0.319412        -0.491329
 H         1.738736        -2.271267         0.034002
 H         1.005681        -2.123994        -1.254783
 H         3.713667        -1.654128        -1.642183
 H         4.257890        -0.699567         0.939322
 H         4.031152         1.966122        -0.424657
 H         5.030976         0.951832        -1.141386
 H         2.855166         0.546286        -2.857547
