19
Iteration:  2697charge 0 multiplicity 1
 C        -0.066818         0.214955         0.373678
 C         1.299016        -0.118455        -0.171359
 C         1.736594        -1.518584        -0.759120
 C         3.167351        -1.021183        -1.074954
 C         3.493915        -0.169682         0.239286
 C         3.917463         0.993819        -0.713970
 C         2.949064         0.292391        -1.785396
 O         1.669948         0.829566        -1.428696
 O         2.240227         0.073242         0.856427
 H         0.092599        -0.100074         1.455529
 H        -0.261807         1.313107         0.407497
 H        -0.690484        -0.548627        -0.165996
 H         1.914252        -2.243390         0.159675
 H         1.106354        -1.894215        -1.624908
 H         3.981404        -1.640348        -1.577960
 H         4.279906        -0.482804         0.969782
 H         3.569588         1.994791        -0.443139
 H         4.999859         0.932484        -0.865000
 H         3.089226         0.407198        -2.926492
