19
Iteration:  3662
 C        -0.058039         0.151118         0.262706
 C         1.358210        -0.165247        -0.189131
 C         1.805633        -1.534141        -0.795610
 C         3.139327        -1.033339        -0.974318
 C         3.590125        -0.158595         0.256125
 C         3.985384         0.942879        -0.763310
 C         2.915970         0.422037        -1.728277
 O         1.503427         0.762324        -1.352221
 O         2.264001         0.190226         0.870017
 H        -0.559604        -0.476465         1.031877
 H        -0.202915         1.226692         0.581839
 H        -0.747979         0.034355        -0.645389
 H         1.581119        -2.387923        -0.175544
 H         1.240622        -1.843262        -1.696906
 H         3.907560        -1.689206        -1.425274
 H         4.376260        -0.464585         0.950776
 H         3.982473         1.936914        -0.357477
 H         4.985901         0.843932        -1.051883
 H         2.923187         0.346612        -2.776234
