19
Iteration:  3217charge 0 multiplicity 1
 C        -0.048770         0.170451         0.225805
 C         1.289194        -0.159772        -0.158870
 C         1.689093        -1.484969        -0.698433
 C         3.154141        -1.007831        -1.052257
 C         3.622065        -0.129338         0.233734
 C         3.957264         1.005580        -0.674332
 C         2.900362         0.281761        -1.753469
 O         1.592904         0.718636        -1.344937
 O         2.260595         0.163216         0.797765
 H        -0.500460        -0.582047         0.862883
 H         0.203944         0.994548         0.884912
 H        -0.627548         0.484083        -0.606584
 H         1.838407        -2.260506         0.012465
 H         1.165488        -1.904981        -1.507996
 H         3.948561        -1.622182        -1.449779
 H         4.368767        -0.645091         0.827201
 H         3.689437         1.991773        -0.237501
 H         4.925876         1.064703        -1.147526
 H         3.172504         0.519232        -2.814429
