19
Iteration:  4180
 C        -0.064497         0.185241         0.288765
 C         1.263168        -0.192059        -0.195033
 C         1.741215        -1.522888        -0.767099
 C         3.114500        -1.014913        -1.034597
 C         3.574530        -0.110823         0.296407
 C         3.986500         0.987168        -0.743006
 C         2.953570         0.384840        -1.671731
 O         1.557905         0.734155        -1.372186
 O         2.331919         0.125025         0.801584
 H        -0.411124        -0.509107         1.071481
 H        -0.172504         1.257463         0.641105
 H        -0.785981         0.060396        -0.616188
 H         1.481766        -2.355956        -0.076151
 H         1.153861        -1.732214        -1.707271
 H         3.754215        -1.808553        -1.490807
 H         4.340608        -0.170691         1.071188
 H         3.964462         2.074112        -0.483104
 H         5.021907         0.744266        -1.097606
 H         3.193992         0.354901        -2.731107
