19
Iteration:  1271charge 0 multiplicity 1
 C        -0.083475         0.217528         0.376816
 C         1.272405        -0.143237        -0.234009
 C         1.724146        -1.452887        -0.772911
 C         3.121999        -0.960703        -1.109889
 C         3.627023        -0.207276         0.214230
 C         4.006887         0.975926        -0.743781
 C         2.908665         0.433125        -1.760014
 O         1.545321         0.732331        -1.283329
 O         2.320476        -0.004007         0.851171
 H        -0.479978        -0.462972         1.099213
 H        -0.007067         1.105503         0.973892
 H        -0.762368         0.238475        -0.370986
 H         1.650666        -2.283519        -0.055713
 H         1.161928        -1.752069        -1.652887
 H         3.737428        -1.719042        -1.677231
 H         4.424728        -0.600430         0.836985
 H         3.953246         2.092603        -0.482997
 H         5.104319         0.983583        -1.082640
 H         3.036445         0.650904        -2.781543
