19
Iteration:  4952
 C        -0.068262         0.152510         0.334646
 C         1.275305        -0.054551        -0.271568
 C         1.806388        -1.506973        -0.748276
 C         3.186050        -1.006612        -0.947763
 C         3.481190        -0.174324         0.252944
 C         3.964732         0.938356        -0.751336
 C         2.983965         0.314864        -1.742241
 O         1.579314         0.778666        -1.351898
 O         2.206602         0.145603         0.805113
 H        -0.060273        -0.122412         1.393767
 H        -0.271433         1.257709         0.134023
 H        -0.806881        -0.295278        -0.304299
 H         1.908748        -2.302643         0.013671
 H         1.429790        -1.868672        -1.684680
 H         4.038432        -1.641515        -1.301609
 H         4.131507        -0.443045         1.137321
 H         4.133161         2.004122        -0.546190
 H         4.880862         0.501588        -1.173961
 H         3.087144         0.426637        -2.900915
