19
Iteration:  2187
 C        -0.054992         0.238755         0.289724
 C         1.290700        -0.140195        -0.181183
 C         1.782658        -1.616472        -0.745704
 C         3.094141        -1.082841        -1.168143
 C         3.623135        -0.180102         0.219095
 C         3.928290         0.952528        -0.673499
 C         2.906096         0.414637        -1.690798
 O         1.589700         0.775942        -1.272079
 O         2.295533         0.171041         0.771820
 H        -0.660788        -0.402823         0.955494
 H         0.052015         1.247538         0.720565
 H        -0.666606         0.301550        -0.756218
 H         1.732983        -2.262299         0.093364
 H         1.177309        -2.123501        -1.426285
 H         3.909410        -1.694453        -1.600651
 H         4.226907        -0.478173         1.080307
 H         3.846804         1.922709        -0.284161
 H         4.934626         0.985686        -1.074868
 H         3.049013         0.576807        -2.762432
