19
Iteration:  3857charge 0 multiplicity 1
 C        -0.079013         0.091514         0.245104
 C         1.301367        -0.066792        -0.240262
 C         1.707259        -1.468085        -0.677861
 C         3.112434        -0.989711        -1.107422
 C         3.590990        -0.165490         0.190521
 C         3.980090         1.018598        -0.739156
 C         3.004438         0.374106        -1.721413
 O         1.603617         0.697443        -1.293075
 O         2.258077         0.095627         0.843837
 H        -0.394273        -0.454670         1.111984
 H         0.018406         1.080367         0.755974
 H        -0.908001         0.008800        -0.554720
 H         1.584625        -2.136375         0.136942
 H         1.201495        -1.862044        -1.608585
 H         3.957170        -1.649315        -1.423468
 H         4.120564        -0.474423         1.085315
 H         3.751504         2.093013        -0.453335
 H         5.106518         0.859855        -0.911803
 H         2.970850         0.574408        -2.811674
