19
Iteration:  3263charge 0 multiplicity 1
 C        -0.006277         0.130978         0.315018
 C         1.278003        -0.149280        -0.243017
 C         1.770897        -1.474864        -0.701137
 C         3.115651        -0.960642        -0.990095
 C         3.479179        -0.178388         0.213468
 C         4.026892         0.997986        -0.771510
 C         2.966625         0.340025        -1.761020
 O         1.600381         0.747661        -1.336645
 O         2.228443         0.133042         0.807164
 H        -0.402264        -0.513845         1.112606
 H        -0.108255         1.195114         0.703796
 H        -0.816474         0.069215        -0.428561
 H         1.625360        -2.204924         0.069132
 H         1.096881        -1.756165        -1.459970
 H         3.901602        -1.672809        -1.483562
 H         4.160979        -0.582259         1.010186
 H         3.799609         2.012808        -0.416902
 H         5.088246         0.947873        -0.999257
 H         3.425200         0.206058        -2.844067
