19
Iteration:   872charge 0 multiplicity 1
 C        -0.085951         0.167044         0.394473
 C         1.272259        -0.162687        -0.255554
 C         1.693919        -1.538642        -0.828910
 C         3.153695        -1.018700        -1.105517
 C         3.715629        -0.222864         0.166462
 C         3.964389         0.942225        -0.766683
 C         2.821777         0.424719        -1.694954
 O         1.536207         0.831237        -1.205191
 O         2.382263         0.096610         0.845366
 H        -0.421823        -0.456016         1.151011
 H         0.112438         1.139771         0.860781
 H        -0.926888         0.498195        -0.298953
 H         1.553891        -2.478628        -0.245602
 H         1.402245        -1.662263        -1.878610
 H         3.923397        -1.644565        -1.579579
 H         4.409331        -0.773482         0.786951
 H         3.691816         1.897465        -0.325101
 H         4.915979         1.107347        -1.231960
 H         2.822516         0.691935        -2.852647
