19
Iteration:  3793
 C        -0.119088         0.069448         0.307666
 C         1.315381        -0.076619        -0.152988
 C         1.667532        -1.543761        -0.704497
 C         3.108620        -1.066472        -1.003437
 C         3.563210        -0.178042         0.200219
 C         3.950191         1.037449        -0.694082
 C         3.012553         0.381894        -1.772192
 O         1.650131         0.795754        -1.426485
 O         2.296857         0.129099         0.836284
 H        -0.473942        -0.700786         1.019237
 H        -0.180551         1.080925         0.853787
 H        -0.873744         0.269128        -0.594479
 H         1.739246        -2.273019         0.056989
 H         1.259498        -1.776737        -1.704371
 H         3.799781        -1.792797        -1.481685
 H         4.389459        -0.448675         0.855621
 H         3.556294         2.017980        -0.383013
 H         5.011622         0.966956        -1.002178
 H         3.247273         0.633448        -2.810479
