19
Iteration:   517charge 0 multiplicity 1
 C        -0.017340         0.190326         0.386239
 C         1.332724        -0.163360        -0.059681
 C         1.670330        -1.507675        -0.896722
 C         3.054048        -1.002478        -1.187026
 C         3.593338        -0.285254         0.158500
 C         3.975111         1.025574        -0.701687
 C         2.901232         0.468281        -1.688901
 O         1.562380         0.675980        -1.239849
 O         2.368797         0.160473         0.818951
 H        -0.356378        -0.607820         1.014619
 H         0.093409         1.175348         0.927442
 H        -0.591072         0.371357        -0.626756
 H         1.705838        -2.462592        -0.317727
 H         0.972664        -1.618066        -1.755996
 H         3.703464        -1.641436        -1.775811
 H         4.352651        -0.750410         0.933484
 H         3.739723         2.004438        -0.259324
 H         5.025222         0.959895        -1.131284
 H         2.948790         0.739221        -2.861294
