19
Iteration:  4216charge 0 multiplicity 1
 C        -0.165897         0.167059         0.240724
 C         1.333063        -0.094167        -0.222822
 C         1.755086        -1.541996        -0.689481
 C         3.092930        -1.074873        -1.054457
 C         3.527450        -0.196261         0.250022
 C         3.893241         0.982443        -0.769821
 C         3.027321         0.413369        -1.780256
 O         1.626493         0.775146        -1.375724
 O         2.342915         0.151229         0.933192
 H        -0.420312        -0.772464         0.743314
 H        -0.291059         0.982380         0.927958
 H        -0.799088         0.218469        -0.639005
 H         2.037402        -2.059604         0.332069
 H         1.169033        -1.865270        -1.495353
 H         3.787693        -1.681193        -1.640771
 H         4.304884        -0.494004         0.997510
 H         3.670625         1.956746        -0.425279
 H         4.934339         0.805972        -0.975819
 H         3.145045         0.483768        -2.895195
