19
Iteration:   721charge 0 multiplicity 1
 C        -0.083239         0.116101         0.436624
 C         1.338485        -0.156213        -0.118299
 C         1.686551        -1.427048        -0.824445
 C         3.080181        -0.966777        -1.205123
 C         3.628279        -0.253191         0.132691
 C         4.029055         0.944111        -0.709637
 C         2.882568         0.454030        -1.709439
 O         1.591227         0.732919        -1.287092
 O         2.310666         0.126071         0.836759
 H        -0.538901        -0.550891         1.100798
 H         0.065221         1.052714         0.971927
 H        -0.816082         0.119850        -0.446055
 H         1.689900        -2.312709        -0.161698
 H         1.003721        -1.640413        -1.638704
 H         3.642124        -1.710936        -1.763578
 H         4.375649        -0.637101         0.825496
 H         3.972217         2.069316        -0.418056
 H         5.025303         0.763821        -1.111736
 H         3.015153         0.830151        -2.644289
