19
Iteration:   308charge 0 multiplicity 1
 C        -0.124191         0.080463         0.415461
 C         1.238905        -0.139927        -0.198859
 C         1.729673        -1.449565        -0.751211
 C         3.075278        -0.950772        -1.094994
 C         3.624701        -0.144925         0.139564
 C         4.114953         0.940922        -0.866727
 C         2.913175         0.446454        -1.742098
 O         1.559014         0.852504        -1.205606
 O         2.305446        -0.007242         0.822368
 H        -0.448537        -0.671565         1.091880
 H        -0.020927         0.940350         1.039527
 H        -0.846971         0.228233        -0.325011
 H         1.746970        -2.322792        -0.110342
 H         1.069945        -1.648063        -1.549717
 H         3.716274        -1.663333        -1.648742
 H         4.401964        -0.466408         0.908472
 H         4.297077         2.001902        -0.406926
 H         5.013115         0.472708        -1.277757
 H         2.973112         0.477039        -2.865971
