19
Iteration:  1162
 C        -0.100783         0.188563         0.368197
 C         1.291156        -0.130638        -0.147211
 C         1.667353        -1.531355        -0.764899
 C         3.112702        -1.004521        -1.077394
 C         3.655135        -0.300008         0.148559
 C         3.970118         0.992056        -0.752862
 C         2.897210         0.508589        -1.677729
 O         1.571267         0.800525        -1.324095
 O         2.377103         0.032680         0.794093
 H        -0.211476        -0.358214         1.317819
 H        -0.227703         1.248818         0.622449
 H        -0.940305        -0.075537        -0.319166
 H         1.754289        -2.512437        -0.209333
 H         1.100713        -1.675447        -1.690266
 H         3.847311        -1.697345        -1.551386
 H         4.433887        -0.525553         0.897273
 H         3.674422         2.056602        -0.324409
 H         5.040240         1.060068        -1.189906
 H         3.047278         0.733020        -2.697903
