19
Iteration:  4958charge 0 multiplicity 1
 C        -0.114729         0.165988         0.297448
 C         1.302901        -0.050368        -0.214954
 C         1.810709        -1.541425        -0.752947
 C         3.163215        -1.059613        -0.958166
 C         3.464014        -0.189009         0.256827
 C         3.983810         0.974717        -0.765367
 C         2.970912         0.326893        -1.743244
 O         1.610671         0.780377        -1.352891
 O         2.248876         0.168067         0.795317
 H        -0.120457        -0.113550         1.353079
 H        -0.491339         1.180483         0.382817
 H        -0.873462        -0.328513        -0.350034
 H         1.711466        -2.381444        -0.007371
 H         1.370615        -1.875076        -1.800469
 H         4.004219        -1.680908        -1.162744
 H         4.275202        -0.365449         0.934616
 H         3.926143         2.039835        -0.487834
 H         5.033904         0.694655        -1.045943
 H         3.044353         0.392746        -2.796574
