19
Iteration:   786charge 0 multiplicity 1
 C        -0.007316         0.133093         0.452047
 C         1.285931        -0.132679        -0.184397
 C         1.683154        -1.517727        -0.859670
 C         3.063471        -1.017430        -1.159088
 C         3.573402        -0.217292         0.130166
 C         4.056070         0.983354        -0.731614
 C         2.948120         0.516876        -1.726171
 O         1.511939         0.794831        -1.291832
 O         2.336050         0.076444         0.884214
 H        -0.055081        -0.303790         1.397242
 H        -0.053349         1.226328         0.569185
 H        -0.803903        -0.369365        -0.200366
 H         1.694291        -2.345352        -0.119188
 H         1.179518        -1.901256        -1.751994
 H         3.846507        -1.694569        -1.506961
 H         4.191827        -0.801195         0.811726
 H         3.974062         2.021813        -0.396408
 H         4.986038         0.698103        -1.081185
 H         2.842044         0.815014        -2.719587
