19
Iteration:  2328charge 0 multiplicity 1
 C        -0.092267         0.195554         0.382463
 C         1.335679        -0.130451        -0.219834
 C         1.744430        -1.422553        -0.776696
 C         3.164775        -1.034087        -1.096769
 C         3.485672        -0.148679         0.218244
 C         3.932352         0.973401        -0.791900
 C         2.987020         0.345396        -1.765847
 O         1.683806         0.749678        -1.316710
 O         2.205886         0.062284         0.871124
 H        -0.164603        -0.301679         1.316452
 H        -0.178997         1.226726         0.551807
 H        -0.871389        -0.227256        -0.285046
 H         1.789081        -2.131579         0.026367
 H         1.284389        -1.924626        -1.549524
 H         3.954688        -1.756080        -1.405296
 H         4.176542        -0.368781         1.032327
 H         3.768427         2.035965        -0.627219
 H         5.054756         0.856308        -0.944587
 H         2.865342         0.516129        -2.848394
