19
Iteration:   289
 C        -0.040561         0.093029         0.418382
 C         1.337149        -0.091900        -0.062209
 C         1.635396        -1.463983        -0.957962
 C         3.128721        -1.006745        -1.130315
 C         3.534176        -0.193792         0.180319
 C         4.035185         0.947829        -0.832543
 C         2.888805         0.438471        -1.765857
 O         1.567286         0.739147        -1.226260
 O         2.378144         0.142659         0.953939
 H        -0.308976        -0.726410         1.044376
 H        -0.269231         1.087062         0.877245
 H        -0.640447         0.047344        -0.577276
 H         1.491509        -2.405822        -0.333594
 H         1.037434        -1.501441        -1.928953
 H         3.936159        -1.597873        -1.498678
 H         4.140316        -0.800291         0.905967
 H         4.077724         2.064915        -0.655966
 H         4.956332         0.539848        -1.388174
 H         2.834926         0.772548        -2.738604
