19
Iteration:  3378
 C        -0.009234        -0.041123        -0.182382
 C         1.508043         0.056840         0.067241
 C         2.193448         1.201127        -0.787791
 C         3.600040         0.940132        -0.451206
 C         4.214325        -0.389677        -1.001265
 C         3.362896        -1.123144         0.169829
 O         2.037011        -1.248396        -0.246708
 C         3.329899         0.253156         0.949116
 O         1.939706         0.356267         1.371728
 H        -0.452776        -0.764069         0.529029
 H        -0.396060         0.915855        -0.010712
 H        -0.247372        -0.164479        -1.212475
 H         1.776833         1.116802        -1.869638
 H         1.716870         2.246255        -0.497415
 H         4.222607         1.842230        -0.543738
 H         3.993951        -0.924736        -1.964856
 H         5.253244        -0.394094        -0.869053
 H         3.788952        -2.088238         0.595690
 H         4.045992         0.544581         1.771222
