19
Iteration:  4267
 C        -0.026213         0.025969         0.078668
 C         1.376945         0.060776        -0.085489
 C         2.197997         1.091133        -0.886389
 C         3.646830         0.929599        -0.432600
 C         4.306441        -0.335551        -0.858437
 C         3.437956        -1.134981         0.094504
 O         2.068960        -1.211813        -0.352236
 C         3.243196         0.183178         0.983630
 O         1.912235         0.368694         1.274386
 H        -0.240940        -0.427046         1.019263
 H        -0.487642         0.978273         0.360204
 H        -0.631665        -0.414582        -0.694397
 H         2.119771         1.058557        -1.988442
 H         1.788165         2.167457        -0.569262
 H         4.135705         1.868247        -0.452890
 H         4.141011        -0.627867        -1.938661
 H         5.339208        -0.336832        -0.550138
 H         3.753809        -2.061197         0.543908
 H         3.907564         0.266922         1.865498
