19
Iteration:  4589
 C        -0.030130        -0.005077        -0.055525
 C         1.468202         0.032455         0.004512
 C         2.151180         1.067336        -0.840409
 C         3.692771         1.022897        -0.383835
 C         4.178248        -0.305162        -0.936271
 C         3.366299        -1.142667         0.131705
 O         2.015899        -1.232361        -0.264881
 C         3.318793         0.214191         0.983586
 O         1.982389         0.360257         1.269996
 H        -0.493271        -0.805778         0.392481
 H        -0.482281         0.925113         0.149958
 H        -0.227348         0.015738        -1.127096
 H         2.048186         0.699046        -1.889754
 H         1.719368         2.011280        -0.656732
 H         4.418533         1.859123        -0.345165
 H         3.782098        -0.519532        -1.933661
 H         5.347203        -0.294790        -0.890239
 H         3.888395        -1.954790         0.622317
 H         4.003078         0.235766         1.838349
