19
Iteration:  1310
 C        -0.117274        -0.058029        -0.117397
 C         1.478465         0.080182        -0.068108
 C         2.172424         1.241942        -0.816472
 C         3.641013         0.898683        -0.369927
 C         4.170131        -0.350934        -1.021397
 C         3.411510        -1.112813         0.147879
 O         2.056356        -1.207949        -0.220208
 C         3.376542         0.144414         1.005608
 O         1.989042         0.412972         1.325543
 H        -0.420627        -1.032716         0.409615
 H        -0.742781         0.636026         0.344820
 H        -0.371149        -0.152771        -1.174073
 H         2.049248         1.093862        -1.876424
 H         1.855806         2.183426        -0.516012
 H         4.243010         1.771987        -0.518818
 H         3.959133        -0.809318        -1.977664
 H         5.213699        -0.294734        -0.671962
 H         3.497276        -2.146681         0.480428
 H         4.122115         0.180757         1.780627
