19
Iteration:   489charge 0 multiplicity 1
 C        -0.089304        -0.064508        -0.009550
 C         1.405537         0.102412        -0.003019
 C         2.172538         1.192434        -0.850029
 C         3.634454         0.908416        -0.393882
 C         4.244836        -0.368561        -1.048338
 C         3.470190        -1.172847         0.223663
 O         2.065194        -1.174064        -0.263620
 C         3.319412         0.149446         0.963707
 O         1.942318         0.456633         1.255948
 H        -0.282990        -1.108838         0.462379
 H        -0.625078         0.740774         0.329039
 H        -0.396275        -0.281674        -1.065377
 H         1.909919         1.115164        -1.894291
 H         1.887811         2.148114        -0.412200
 H         4.308006         1.698729        -0.460154
 H         3.825740        -0.711098        -2.003099
 H         5.373611        -0.412677        -1.045920
 H         3.833123        -2.157779         0.767786
 H         3.877088         0.319955         1.938036
