19
Iteration:  2971
 C        -0.023108        -0.066454        -0.137846
 C         1.469697         0.093417        -0.075725
 C         2.248013         1.261274        -0.785648
 C         3.651653         1.002763        -0.358935
 C         4.154997        -0.387531        -1.022592
 C         3.422518        -1.131786         0.150270
 O         2.020382        -1.272438        -0.182819
 C         3.289348         0.198699         1.034920
 O         1.934596         0.361180         1.272688
 H        -0.367785        -0.626539         0.713218
 H        -0.564363         0.846853         0.117358
 H        -0.321601        -0.449769        -1.104926
 H         2.194083         1.201878        -1.858440
 H         1.760221         2.083964        -0.480471
 H         4.249101         1.901819        -0.542410
 H         3.751930        -0.661150        -2.066438
 H         5.197173        -0.630940        -1.020763
 H         3.878716        -2.106443         0.461342
 H         4.106576         0.203322         1.780144
