19
Iteration:  3436
 C        -0.045919         0.007958         0.034814
 C         1.468333         0.137567         0.018621
 C         2.146618         1.035397        -0.958851
 C         3.614638         0.974041        -0.393967
 C         4.368127        -0.344268        -0.851128
 C         3.344913        -1.052161         0.080081
 O         1.990188        -1.213598        -0.325829
 C         3.274042         0.178667         0.976154
 O         1.997917         0.357684         1.280690
 H        -0.383098        -0.851022         0.539410
 H        -0.594064         0.770012         0.641328
 H        -0.401585        -0.151252        -0.984807
 H         2.015400         0.568839        -1.920456
 H         1.837897         2.060229        -0.830466
 H         4.004035         2.002538        -0.429264
 H         4.273245        -0.743937        -1.847339
 H         5.453519        -0.616334        -0.495205
 H         3.769229        -2.039917         0.443642
 H         3.888483         0.280746         1.817942
