19
Iteration:   812charge 0 multiplicity 1
 C        -0.084444         0.008993         0.020083
 C         1.411954         0.028137        -0.051368
 C         2.206881         1.173311        -0.916985
 C         3.628696         0.965587        -0.447657
 C         4.294582        -0.357126        -0.938188
 C         3.457411        -1.094274         0.143648
 O         2.014327        -1.255747        -0.227219
 C         3.348257         0.182413         1.013292
 O         1.913899         0.381768         1.266671
 H        -0.446791        -0.464936         0.974662
 H        -0.347562         0.986321        -0.128614
 H        -0.567041        -0.422952        -0.891251
 H         2.187234         0.848540        -2.042051
 H         1.569321         2.027743        -0.840560
 H         4.314928         1.930442        -0.355099
 H         4.113437        -0.653954        -1.972169
 H         5.404120        -0.479494        -0.665069
 H         3.618902        -2.102852         0.485694
 H         3.863741         0.257196         2.014344
