19
Iteration:  4278charge 0 multiplicity 1
 C        -0.138496         0.012974         0.101137
 C         1.492741         0.080080        -0.023269
 C         2.180517         1.109457        -0.878298
 C         3.605965         0.950175        -0.384190
 C         4.324662        -0.395441        -0.849944
 C         3.335237        -1.115683         0.170982
 O         2.044366        -1.219283        -0.458163
 C         3.358512         0.271452         0.985551
 O         1.947881         0.327873         1.259409
 H        -0.278541        -0.716801         0.859510
 H        -0.525005         1.041977         0.090139
 H        -0.425438        -0.497066        -0.808438
 H         2.011148         0.855748        -1.938480
 H         1.715629         2.186524        -0.630241
 H         4.155531         1.824971        -0.603516
 H         4.301455        -0.594343        -1.989164
 H         5.380125        -0.278677        -0.700436
 H         3.520881        -2.037926         0.683829
 H         4.079902         0.347164         1.833212
