19
Iteration:  1691charge 0 multiplicity 1
 C        -0.046724        -0.073750         0.056951
 C         1.438563         0.125234        -0.005861
 C         2.253889         1.161309        -0.926320
 C         3.645954         0.921620        -0.400970
 C         4.266234        -0.453656        -0.917270
 C         3.341343        -1.125766         0.147069
 O         2.044976        -1.235974        -0.292882
 C         3.321659         0.254690         0.915125
 O         1.880690         0.425344         1.278296
 H        -0.112506        -0.983316         0.629608
 H        -0.355055         0.737583         0.744059
 H        -0.482120        -0.260397        -0.908831
 H         2.062354         0.901573        -2.050871
 H         1.841913         2.236492        -0.831196
 H         4.352633         1.743330        -0.296153
 H         4.016983        -0.402316        -2.008625
 H         5.378173        -0.265584        -0.867848
 H         3.726549        -2.006789         0.610841
 H         3.827471         0.380067         1.869733
