19
Iteration:  3212
 C        -0.042087        -0.043490         0.010420
 C         1.459858         0.104087        -0.025567
 C         2.220553         1.122167        -0.902211
 C         3.597226         0.941814        -0.325168
 C         4.239268        -0.377769        -0.947093
 C         3.378110        -1.111033         0.145709
 O         2.058292        -1.183158        -0.341126
 C         3.319834         0.162903         0.998956
 O         1.956714         0.367092         1.270872
 H        -0.225887        -0.975786         0.444055
 H        -0.420875         0.823529         0.543374
 H        -0.511710         0.165318        -0.920947
 H         2.019623         1.187261        -2.013561
 H         1.661978         2.106011        -0.609882
 H         4.075547         1.950036        -0.291244
 H         3.934587        -0.522327        -2.015459
 H         5.233399        -0.652892        -0.778174
 H         3.639905        -2.072271         0.612279
 H         4.005525         0.289142         1.775295
