19
Iteration:   317charge 0 multiplicity 1
 C        -0.033586         0.150929         0.090331
 C         1.437743         0.043136        -0.020597
 C         2.150534         1.048187        -0.975566
 C         3.616190         0.975209        -0.413399
 C         4.286075        -0.303798        -0.910846
 C         3.435531        -1.064752         0.123911
 O         2.115904        -1.340150        -0.284500
 C         3.300442         0.181388         0.963675
 O         1.864200         0.323216         1.261178
 H        -0.345789        -0.724998         0.748036
 H        -0.344471         1.006145         0.655008
 H        -0.706512         0.211446        -0.790284
 H         2.062097         0.825520        -2.026534
 H         1.646440         2.029290        -0.898211
 H         4.108423         1.951963        -0.443219
 H         4.211554        -0.608518        -1.972602
 H         5.319655        -0.354787        -0.620489
 H         3.803740        -1.922120         0.614407
 H         3.970661         0.312534         1.896906
