19
Iteration:  2879charge 0 multiplicity 1
 C        -0.048546        -0.093582         0.068972
 C         1.514944         0.034811        -0.178833
 C         2.187709         1.131278        -0.906556
 C         3.632171         0.940920        -0.343206
 C         4.298764        -0.385694        -0.917112
 C         3.331753        -1.129221         0.170486
 O         2.005201        -1.180133        -0.326551
 C         3.313492         0.212450         0.981478
 O         1.952870         0.448494         1.282124
 H        -0.257320        -0.825786         0.834083
 H        -0.509229         0.781522         0.535219
 H        -0.510591        -0.258443        -0.901862
 H         2.219307         1.148371        -1.997776
 H         1.745145         2.096406        -0.550346
 H         4.205529         1.881552        -0.333836
 H         3.961068        -0.500090        -1.921198
 H         5.468705        -0.528242        -0.798054
 H         3.549893        -2.091937         0.490154
 H         3.757866         0.299776         1.930482
