19
Iteration:  2421charge 0 multiplicity 1
 C        -0.070294        -0.143706        -0.150270
 C         1.455933         0.113307         0.065321
 C         2.225523         1.199578        -0.919887
 C         3.629422         0.900926        -0.375776
 C         4.151027        -0.340873        -1.040763
 C         3.339277        -1.094033         0.161565
 O         2.007098        -1.227684        -0.237398
 C         3.420559         0.225129         1.017344
 O         1.986403         0.414747         1.377748
 H        -0.260450        -1.150000         0.278446
 H        -0.469634         0.758788         0.273083
 H        -0.202303        -0.183846        -1.199602
 H         2.046457         0.692707        -1.900921
 H         1.621391         2.133921        -0.729745
 H         4.350913         1.755068        -0.344729
 H         3.830812        -0.602340        -2.012912
 H         5.251570        -0.370985        -0.925673
 H         3.709581        -2.028974         0.516650
 H         4.129104         0.509423         1.801714
