19
Iteration:   441
 C        -0.062769         0.106324         0.046283
 C         1.382591         0.092100         0.042309
 C         2.140333         1.023386        -0.964162
 C         3.532950         0.994540        -0.396016
 C         4.377431        -0.287967        -0.871967
 C         3.402327        -1.053182         0.052651
 O         1.985065        -1.255695        -0.328433
 C         3.392850         0.144546         0.967518
 O         1.996274         0.273370         1.328202
 H        -0.446994        -0.427979         0.883236
 H        -0.366736         1.211446        -0.040605
 H        -0.480668        -0.416009        -0.820851
 H         2.151356         0.455301        -1.927244
 H         1.654041         2.002075        -1.102902
 H         4.070551         2.013810        -0.348411
 H         4.309386        -0.588333        -1.915937
 H         5.400654        -0.268384        -0.466182
 H         3.730640        -1.935166         0.495067
 H         4.008259         0.256110         1.812665
