19
Iteration:   203
 C        -0.048343         0.058897        -0.046615
 C         1.417488         0.105954        -0.001670
 C         2.150906         1.088019        -0.958750
 C         3.580200         1.005430        -0.483573
 C         4.198140        -0.306327        -0.866811
 C         3.357926        -1.120512         0.090646
 O         2.049353        -1.320745        -0.113935
 C         3.359728         0.229726         0.911149
 O         2.038855         0.296623         1.309597
 H        -0.340958        -0.650239         0.700629
 H        -0.576883         1.126408         0.021289
 H        -0.347239        -0.358731        -1.004060
 H         2.051558         0.738573        -2.036298
 H         1.650060         2.087697        -0.972303
 H         4.195680         1.971321        -0.415497
 H         4.350843        -0.563157        -1.943253
 H         5.291022        -0.271919        -0.489816
 H         3.901060        -2.084053         0.613018
 H         3.942424         0.476623         1.753042
