19
Iteration:  4092
 C        -0.065382        -0.007344        -0.104118
 C         1.428545         0.022693        -0.010257
 C         2.143917         1.224944        -0.856462
 C         3.657454         0.948225        -0.420974
 C         4.208145        -0.338075        -0.950984
 C         3.474460        -1.134659         0.185846
 O         2.034012        -1.219658        -0.281074
 C         3.330439         0.126823         0.998199
 O         1.983312         0.360799         1.316410
 H        -0.321857        -0.642325         0.773337
 H        -0.345669         1.097904         0.093111
 H        -0.680346        -0.423707        -1.006611
 H         1.975026         1.261462        -1.975744
 H         1.603297         2.142534        -0.419605
 H         4.197982         1.964421        -0.381945
 H         3.735664        -0.701389        -1.849898
 H         5.286867        -0.420419        -0.948796
 H         3.827699        -2.144819         0.342679
 H         4.039258         0.320186         1.799140
