19
Iteration:  1844
 C        -0.038029         0.030620        -0.038781
 C         1.472608         0.014009        -0.057999
 C         2.210798         1.075558        -0.912644
 C         3.580179         0.922321        -0.432213
 C         4.186081        -0.347539        -0.937626
 C         3.416642        -1.086052         0.183437
 O         2.064846        -1.239839        -0.254312
 C         3.359615         0.279003         0.994070
 O         1.924643         0.388090         1.313319
 H        -0.300476        -0.882894         0.415250
 H        -0.521860         0.906408         0.465379
 H        -0.547657        -0.042115        -1.049198
 H         1.867846         0.859802        -1.936172
 H         1.872687         2.029726        -0.553906
 H         4.208328         1.877454        -0.514025
 H         3.996549        -0.857216        -1.888394
 H         5.289688        -0.495776        -0.831879
 H         3.820916        -2.020703         0.561410
 H         3.950791         0.426364         1.893913
