19
Iteration:  4709charge 0 multiplicity 1
 C        -0.107093        -0.003868         0.022506
 C         1.414469         0.043722        -0.035920
 C         2.223179         1.117016        -0.919501
 C         3.623577         0.995489        -0.347101
 C         4.219646        -0.354540        -0.937579
 C         3.433236        -1.105889         0.108891
 O         2.052810        -1.235906        -0.311106
 C         3.384741         0.220471         1.026063
 O         1.958735         0.323641         1.265407
 H        -0.650670        -0.561438         0.709270
 H        -0.439326         1.013002         0.248702
 H        -0.607350        -0.020928        -0.993352
 H         2.022838         0.933900        -2.022893
 H         1.741736         2.034941        -0.597021
 H         4.281472         1.900693        -0.418166
 H         3.903106        -0.617544        -1.945608
 H         5.325439        -0.358118        -0.698862
 H         3.636133        -2.108208         0.579271
 H         4.027324         0.253606         1.943708
