19
Iteration:  3681charge 0 multiplicity 1
 C        -0.089018        -0.048381        -0.090979
 C         1.483052         0.019999        -0.032933
 C         2.208225         1.120268        -0.912234
 C         3.597491         0.973601        -0.367181
 C         4.189580        -0.331202        -0.998227
 C         3.408446        -1.082151         0.136735
 O         2.017071        -1.255870        -0.211989
 C         3.365936         0.161421         1.011969
 O         1.973365         0.462893         1.347329
 H        -0.308029        -0.721494         0.789908
 H        -0.546048         0.970464        -0.086450
 H        -0.176357        -0.431183        -1.184938
 H         2.045179         1.179976        -1.969336
 H         1.715287         2.032952        -0.668246
 H         4.215706         1.878736        -0.510523
 H         4.038308        -0.679460        -2.052935
 H         5.250501        -0.568383        -0.666560
 H         3.673691        -2.084141         0.439711
 H         4.001695         0.176806         1.868938
