19
Iteration:  3152charge 0 multiplicity 1
 C        -0.059108         0.109629         0.021031
 C         1.470012         0.045902        -0.030067
 C         2.214918         1.103928        -0.913553
 C         3.599752         1.060211        -0.319153
 C         4.230105        -0.303109        -0.932486
 C         3.464544        -1.142412         0.092005
 O         2.001146        -1.302300        -0.352768
 C         3.298640         0.120785         1.042081
 O         1.930064         0.347133         1.270300
 H        -0.491338        -0.539065         0.892587
 H        -0.452126         1.136364         0.173857
 H        -0.424463        -0.410377        -0.906582
 H         2.235216         0.847934        -1.954390
 H         1.746564         2.035975        -0.707583
 H         4.296828         1.895053        -0.229081
 H         4.065300        -0.493269        -1.986567
 H         5.315816        -0.520394        -0.690992
 H         3.827468        -2.153084         0.404952
 H         4.073603         0.368281         1.886063
