19
Iteration:  1289charge 0 multiplicity 1
 C        -0.020520         0.005973        -0.086384
 C         1.517092         0.095489         0.078694
 C         2.130824         1.052609        -0.877748
 C         3.637523         0.969744        -0.370598
 C         4.270748        -0.349910        -0.930648
 C         3.396803        -1.102686         0.085739
 O         1.963459        -1.245102        -0.338745
 C         3.334881         0.242583         0.948615
 O         1.982467         0.370778         1.375029
 H        -0.578510        -0.889262         0.302269
 H        -0.478355         0.804799         0.425725
 H        -0.184202         0.183797        -1.132886
 H         1.912411         0.760090        -1.933686
 H         1.751097         2.012957        -0.649840
 H         4.089228         1.934561        -0.339105
 H         3.947573        -0.678643        -1.910696
 H         5.356153        -0.470394        -0.665303
 H         3.682620        -2.185994         0.386995
 H         3.883481         0.379049         1.850646
