19
Iteration:  2600charge 0 multiplicity 1
 C        -0.082891        -0.014624         0.024298
 C         1.396092         0.041703        -0.014014
 C         2.216093         1.106080        -0.954019
 C         3.649505         0.967291        -0.412433
 C         4.325884        -0.321441        -0.947094
 C         3.384593        -1.107974         0.062586
 O         1.986764        -1.290291        -0.198916
 C         3.305146         0.179482         1.029852
 O         1.960560         0.422501         1.279052
 H        -0.404162        -0.756736         0.713609
 H        -0.468100         0.908007         0.286398
 H        -0.377418        -0.099809        -1.009523
 H         2.089852         0.825274        -2.036888
 H         1.662519         2.104579        -0.954103
 H         4.216193         1.871766        -0.233685
 H         4.238521        -0.437692        -2.081091
 H         5.372604        -0.271606        -0.708154
 H         3.806919        -2.019540         0.566978
 H         4.091415         0.377131         1.791504
