19
Iteration:   427
 C        -0.132082         0.093533         0.043207
 C         1.451720         0.002686         0.007964
 C         2.060834         1.001311        -0.944821
 C         3.637115         0.947828        -0.318068
 C         4.370244        -0.339441        -0.956672
 C         3.471162        -1.142166         0.038534
 O         2.115018        -1.168745        -0.305538
 C         3.241477         0.204383         0.937981
 O         1.937739         0.363198         1.347802
 H        -0.573217        -0.204857         0.952100
 H        -0.417975         1.219771         0.083119
 H        -0.575204        -0.370942        -0.786889
 H         1.932804         0.715774        -1.972683
 H         1.714733         2.059320        -0.811082
 H         4.054531         1.952688        -0.217270
 H         4.434851        -0.482838        -2.057538
 H         5.331942        -0.574322        -0.563674
 H         3.754786        -2.139152         0.311210
 H         4.017037         0.319614         1.773123
