19
Iteration:   471charge 0 multiplicity 1
 C        -0.031307        -0.043394         0.006355
 C         1.438634         0.033497        -0.052537
 C         2.165879         1.140417        -0.875960
 C         3.624326         0.954463        -0.360968
 C         4.260338        -0.396161        -0.936498
 C         3.376214        -1.074714         0.035166
 O         2.022959        -1.261910        -0.267547
 C         3.349045         0.224279         0.984148
 O         1.956378         0.411425         1.294961
 H        -0.370904        -0.620722         0.809162
 H        -0.351420         1.025754         0.410704
 H        -0.501018        -0.325717        -0.898566
 H         2.164324         1.019423        -1.959792
 H         1.673548         2.119781        -0.654607
 H         4.164104         1.935047        -0.259549
 H         4.063965        -0.631907        -2.004991
 H         5.316597        -0.528410        -0.726577
 H         3.696751        -2.004796         0.437801
 H         3.998791         0.382786         1.892865
