19
Iteration:  3981
 C        -0.118466         0.055740         0.012836
 C         1.491490         0.092884         0.012916
 C         2.116933         1.081906        -0.952526
 C         3.602310         0.985159        -0.353136
 C         4.287092        -0.285065        -0.876920
 C         3.417172        -1.175517         0.116008
 O         2.012465        -1.237602        -0.317252
 C         3.355028         0.158393         0.986812
 O         1.987766         0.364669         1.261666
 H        -0.429725        -0.868957         0.663592
 H        -0.563070         0.880055         0.635444
 H        -0.505561        -0.133450        -1.010408
 H         2.249325         0.734709        -1.983177
 H         1.729686         2.059537        -0.806271
 H         4.152424         1.975810        -0.413176
 H         4.111315        -0.521172        -1.978021
 H         5.339961        -0.291065        -0.691074
 H         3.874801        -2.180106         0.298798
 H         3.940136         0.177119         1.905104
