19
Iteration:   923
 C        -0.064352         0.092024        -0.141594
 C         1.467569         0.087477         0.056549
 C         2.147840         1.120706        -0.909314
 C         3.592447         0.936696        -0.434095
 C         4.241893        -0.378917        -1.023301
 C         3.512400        -1.102391         0.168098
 O         2.097570        -1.322361        -0.119694
 C         3.293398         0.268749         0.914145
 O         1.879562         0.333785         1.351006
 H        -0.619565        -0.751039         0.359573
 H        -0.429462         1.040525         0.235799
 H        -0.318002         0.014679        -1.166768
 H         2.043243         0.703174        -1.927250
 H         1.760809         2.183529        -0.886404
 H         4.279555         1.869545        -0.237365
 H         3.972920        -0.526306        -2.092391
 H         5.338735        -0.574610        -0.909408
 H         3.887993        -1.984460         0.674411
 H         3.877421         0.372252         1.776150
