19
Iteration:  4625
 C        -0.040911        -0.044606        -0.086235
 C         1.512485         0.006436        -0.057974
 C         2.188491         1.187882        -0.800204
 C         3.640688         0.919692        -0.395638
 C         4.139235        -0.356141        -0.961498
 C         3.442403        -1.124423         0.087648
 O         2.066623        -1.178764        -0.224573
 C         3.295457         0.208475         0.974592
 O         1.942707         0.379037         1.317598
 H        -0.542098        -0.677860         0.654919
 H        -0.340669         0.992665         0.072777
 H        -0.269770        -0.433091        -1.064394
 H         1.915293         1.059071        -1.854021
 H         1.678320         2.061492        -0.472238
 H         4.308754         1.743017        -0.401971
 H         4.011736        -0.577394        -1.959734
 H         5.218513        -0.384347        -0.816275
 H         3.524651        -2.128506         0.453837
 H         3.936840         0.399897         1.857003
