19
Iteration:  3299charge 0 multiplicity 1
 C        -0.119340         0.100271         0.052625
 C         1.449944         0.058106        -0.033125
 C         2.186614         1.104609        -0.897199
 C         3.602996         0.978568        -0.341863
 C         4.326331        -0.312607        -0.845246
 C         3.444030        -1.109140         0.134402
 O         2.026758        -1.282730        -0.361618
 C         3.294190         0.181504         0.908417
 O         1.966054         0.280517         1.268351
 H        -0.620978        -0.340128         0.921535
 H        -0.377655         1.183876         0.236658
 H        -0.532686        -0.272459        -0.903708
 H         2.100370         0.732733        -2.009913
 H         1.528844         2.111269        -0.850588
 H         4.139909         1.948074        -0.341732
 H         4.207097        -0.533820        -1.928761
 H         5.385285        -0.364842        -0.717737
 H         3.890223        -1.956590         0.640076
 H         3.900915         0.330123         1.791545
