19
Iteration:  4248
 C        -0.084586         0.019504         0.034935
 C         1.458177         0.014758        -0.026635
 C         2.197432         1.187111        -0.963374
 C         3.623015         0.977005        -0.274822
 C         4.284893        -0.354054        -0.955274
 C         3.391344        -1.127130         0.069553
 O         2.003750        -1.292694        -0.259475
 C         3.360242         0.200125         1.023757
 O         1.934560         0.379350         1.224325
 H        -0.472334        -0.610832         0.923760
 H        -0.456722         1.090758         0.212700
 H        -0.449073        -0.317311        -0.928230
 H         2.068691         0.905171        -2.003611
 H         1.551046         2.077048        -0.864168
 H         4.145537         1.984799        -0.150857
 H         4.318198        -0.489060        -1.971466
 H         5.369557        -0.392167        -0.767294
 H         3.717694        -2.104336         0.457764
 H         4.148693         0.284385         1.838842
