19
Iteration:  1581charge 0 multiplicity 1
 C        -0.016643        -0.087869        -0.082754
 C         1.456237         0.105468        -0.064120
 C         2.166483         1.202624        -0.830771
 C         3.643524         0.981495        -0.396829
 C         4.187307        -0.454844        -1.010093
 C         3.371214        -1.151872         0.199094
 O         2.045219        -1.172113        -0.219728
 C         3.378530         0.148485         1.002438
 O         1.953804         0.415792         1.300367
 H        -0.463441        -0.721607         0.766060
 H        -0.561621         0.832551        -0.205058
 H        -0.363176        -0.585057        -0.949646
 H         1.979738         1.106653        -1.968410
 H         1.900656         2.313474        -0.480560
 H         4.238379         1.923184        -0.388365
 H         3.895723        -0.630525        -2.110777
 H         5.300757        -0.441282        -0.981587
 H         3.660141        -2.150079         0.425998
 H         3.913133         0.360024         1.888273
