19
Iteration:   128
 C        -0.038430        -0.076655        -0.029460
 C         1.454110         0.078577        -0.031958
 C         2.193641         1.083414        -0.897877
 C         3.647420         0.926866        -0.434053
 C         4.217719        -0.409411        -0.947626
 C         3.374468        -1.110451         0.146053
 O         2.026810        -1.250643        -0.199996
 C         3.345179         0.295958         0.904706
 O         1.953388         0.471609         1.323145
 H        -0.202543        -1.005085         0.483186
 H        -0.650079         0.757086         0.493704
 H        -0.423084        -0.157987        -1.044398
 H         1.896493         1.060930        -1.977649
 H         1.719818         2.033889        -0.575954
 H         4.187420         1.905144        -0.517154
 H         4.129184        -0.692867        -2.000272
 H         5.310552        -0.501497        -0.623093
 H         3.743123        -2.103847         0.664750
 H         3.999394         0.538121         1.695226
