19
Iteration:  2543
 C        -0.119479        -0.028129        -0.100720
 C         1.509531         0.122085         0.014023
 C         2.140646         1.169129        -0.795619
 C         3.575124         0.971567        -0.471020
 C         4.193283        -0.476974        -0.961775
 C         3.424611        -1.101319         0.156579
 O         2.111406        -1.251361        -0.231295
 C         3.419593         0.226204         0.952649
 O         1.890245         0.357260         1.301134
 H        -0.469631        -0.562918         0.745293
 H        -0.555310         0.997926        -0.155859
 H        -0.276249        -0.710383        -0.946962
 H         2.029830         1.240600        -1.937578
 H         1.924633         2.185874        -0.318558
 H         4.239685         1.914380        -0.354382
 H         3.877835        -0.720887        -1.938779
 H         5.296588        -0.375188        -0.958015
 H         3.753385        -2.001694         0.646158
 H         4.154286         0.569433         1.658320
