19
Iteration:    65
 C        -0.049447         0.019925         0.052593
 C         1.464347         0.037308         0.006211
 C         2.167186         1.089140        -0.940872
 C         3.633290         0.984072        -0.483554
 C         4.221732        -0.365806        -0.962410
 C         3.413032        -1.118358         0.167440
 O         2.049721        -1.352643        -0.244033
 C         3.283892         0.284951         0.992387
 O         1.959768         0.444793         1.279884
 H        -0.367896        -0.562262         0.922628
 H        -0.544869         1.019918         0.010308
 H        -0.350729        -0.550972        -0.843650
 H         1.985072         0.833967        -2.012302
 H         1.717127         2.089031        -0.813460
 H         4.338841         1.827416        -0.515042
 H         4.186013        -0.675555        -1.997841
 H         5.329531        -0.389136        -0.868128
 H         3.818448        -1.908023         0.772472
 H         3.849649         0.491051         1.875174
