19
Iteration:  1222charge 0 multiplicity 1
 C        -0.059668        -0.047099         0.007805
 C         1.432113         0.072876        -0.022204
 C         2.214647         1.130347        -0.915369
 C         3.665357         1.005963        -0.414949
 C         4.253881        -0.361507        -0.868889
 C         3.323766        -1.094242         0.123716
 O         1.998606        -1.176212        -0.345411
 C         3.328964         0.204832         0.975041
 O         1.971208         0.329471         1.316702
 H        -0.301658        -0.767849         0.860796
 H        -0.441767         0.875307         0.229291
 H        -0.335133        -0.475786        -0.984191
 H         1.915714         0.874839        -1.955997
 H         1.968413         2.149600        -0.733035
 H         4.335884         1.880338        -0.398623
 H         4.062309        -0.818373        -1.862167
 H         5.312986        -0.428081        -0.564689
 H         3.658092        -2.084624         0.577379
 H         4.117875         0.239115         1.750391
