19
Iteration:  1701charge 0 multiplicity 1
 C        -0.030889        -0.078504         0.000420
 C         1.439512         0.118855         0.011393
 C         2.155078         1.167774        -0.919821
 C         3.710071         0.942660        -0.383223
 C         4.192971        -0.396018        -0.971091
 C         3.417422        -1.143926         0.121109
 O         2.068646        -1.240598        -0.270203
 C         3.263681         0.204352         1.025259
 O         1.947821         0.479619         1.288239
 H        -0.332030        -0.989027         0.542242
 H        -0.614018         0.789847         0.359963
 H        -0.376942        -0.186702        -1.009881
 H         2.021529         0.793352        -1.958032
 H         1.776658         2.229974        -0.796269
 H         4.251638         1.915571        -0.520348
 H         4.058090        -0.737926        -2.056919
 H         5.221066        -0.730452        -0.673498
 H         3.656564        -2.109208         0.534240
 H         4.023252         0.251408         1.768816
