19
Iteration:  3260charge 0 multiplicity 1
 C        -0.035201        -0.025108        -0.151182
 C         1.433917         0.041926         0.021638
 C         2.152037         1.143610        -0.843941
 C         3.649168         1.002178        -0.359001
 C         4.209486        -0.352518        -0.937321
 C         3.418374        -1.067709         0.106590
 O         1.951085        -1.211201        -0.227319
 C         3.354417         0.193755         0.946961
 O         2.008570         0.323646         1.342139
 H        -0.317211        -1.038579         0.252295
 H        -0.574242         0.845779         0.192517
 H        -0.233447         0.058856        -1.224449
 H         2.012990         1.031927        -1.915544
 H         1.803477         2.117271        -0.665883
 H         4.400760         1.805352        -0.361071
 H         3.938807        -0.714998        -1.975181
 H         5.337946        -0.428937        -0.769131
 H         3.635001        -2.089425         0.570259
 H         4.174173         0.207612         1.745430
