19
Iteration:  4959
 C        -0.018315         0.039318         0.084726
 C         1.502679         0.086792        -0.013606
 C         2.141649         1.128239        -0.919762
 C         3.645588         1.019124        -0.326422
 C         4.281291        -0.374389        -0.881871
 C         3.350675        -1.053024         0.105515
 O         2.014567        -1.314057        -0.383976
 C         3.283357         0.163817         1.034272
 O         1.950689         0.360735         1.202087
 H        -0.230609        -0.853824         0.645914
 H        -0.424968         0.978404         0.426525
 H        -0.547382        -0.209208        -0.824256
 H         2.119490         0.928488        -2.005194
 H         1.714995         2.088322        -0.805644
 H         4.286385         1.900891        -0.301922
 H         4.152958        -0.549856        -2.063461
 H         5.343628        -0.496978        -0.623083
 H         3.678305        -1.961463         0.613908
 H         3.940238         0.135323         1.931994
