19
Iteration:  4603charge 0 multiplicity 1
 C        -0.062708         0.018883        -0.127857
 C         1.437897         0.091843         0.014222
 C         2.216422         1.204899        -0.857073
 C         3.628686         0.988264        -0.338308
 C         4.191736        -0.313320        -1.012682
 C         3.435854        -1.087166         0.157371
 O         2.033802        -1.398607        -0.217965
 C         3.373665         0.181676         0.991846
 O         1.954055         0.373243         1.280501
 H        -0.383751        -0.793741         0.558829
 H        -0.522516         0.926156         0.296830
 H        -0.364941        -0.332885        -1.117143
 H         2.065877         1.130084        -1.963864
 H         1.782036         2.167818        -0.647270
 H         4.091788         1.940734        -0.419163
 H         3.808517        -0.468471        -1.954672
 H         5.230231        -0.611618        -1.143764
 H         3.660647        -2.101187         0.578402
 H         3.893745         0.350645         1.969347
