19
Iteration:    71
 C         0.019442         0.029161         0.011218
 C         1.501290         0.030137         0.012297
 C         2.140693         1.087810        -0.947367
 C         3.636805         1.017835        -0.491533
 C         4.200054        -0.360415        -0.954897
 C         3.354026        -1.061302         0.181170
 O         2.014511        -1.334974        -0.194024
 C         3.322732         0.300500         0.991434
 O         1.960443         0.346856         1.265244
 H        -0.435743        -0.540880         0.825819
 H        -0.408444         1.086054        -0.006659
 H        -0.237797        -0.478524        -0.917067
 H         2.043654         0.649020        -1.953908
 H         1.696533         2.082876        -0.801517
 H         4.259852         1.921943        -0.734429
 H         3.907226        -0.739225        -1.976932
 H         5.274287        -0.401185        -0.653710
 H         3.985289        -1.932403         0.630934
 H         3.935829         0.461415         1.907402
