19
Iteration:  1437
 C        -0.074497        -0.084233        -0.038941
 C         1.406602         0.144384        -0.013937
 C         2.230999         1.156475        -0.847214
 C         3.702026         0.915965        -0.428471
 C         4.196455        -0.389538        -0.950552
 C         3.444160        -1.122769         0.131038
 O         2.003458        -1.234092        -0.312457
 C         3.304381         0.255613         1.046538
 O         1.943411         0.392147         1.321925
 H        -0.215718        -0.949855         0.540768
 H        -0.567327         0.803058         0.246363
 H        -0.348943        -0.296888        -1.079558
 H         2.138417         1.120535        -1.912233
 H         1.731157         2.172711        -0.524094
 H         4.367107         1.811962        -0.351838
 H         3.929185        -0.724676        -1.986724
 H         5.245566        -0.375045        -1.008107
 H         3.700550        -2.126297         0.384553
 H         4.068410         0.353173         1.845410
