19
Iteration:  3595charge 0 multiplicity 1
 C        -0.080218        -0.124030         0.086246
 C         1.418660         0.126209        -0.028712
 C         2.227826         1.157268        -0.965011
 C         3.716226         0.974757        -0.420604
 C         4.330646        -0.337303        -0.853956
 C         3.337016        -1.086645         0.126432
 O         1.967196        -1.242965        -0.340946
 C         3.288557         0.201604         0.971921
 O         1.966563         0.418340         1.287155
 H        -0.260798        -1.055695         0.687251
 H        -0.573148         0.747387         0.564831
 H        -0.816631        -0.256210        -0.776293
 H         2.139741         0.660999        -1.943064
 H         1.895351         2.179919        -0.950933
 H         4.314251         1.863188        -0.568019
 H         4.253938        -0.683816        -1.964532
 H         5.361572        -0.498037        -0.375242
 H         3.629250        -2.093143         0.470060
 H         3.972370         0.220620         1.801874
