19
Iteration:  2138
 C        -0.040358        -0.048874        -0.136516
 C         1.419685         0.106515         0.073942
 C         2.237117         1.158220        -0.877920
 C         3.639306         0.972940        -0.362562
 C         4.178958        -0.361242        -1.015153
 C         3.399591        -1.115936         0.127051
 O         1.983161        -1.252982        -0.229091
 C         3.405834         0.238895         0.969456
 O         1.966945         0.376670         1.331312
 H        -0.444358        -0.754965         0.618139
 H        -0.634379         0.804334        -0.244535
 H        -0.073890        -0.666176        -1.003718
 H         2.083066         0.926373        -1.925030
 H         1.688300         2.061272        -0.714024
 H         4.332327         1.857375        -0.141734
 H         3.735906        -0.368632        -1.977643
 H         5.242271        -0.663593        -0.945430
 H         3.633168        -2.022151         0.577951
 H         4.077054         0.271162         1.870145
