19
Iteration:  1978charge 0 multiplicity 1
 C        -0.110990         0.026796        -0.075900
 C         1.410378         0.038787        -0.012435
 C         2.174822         1.045170        -0.937040
 C         3.598748         0.991202        -0.335412
 C         4.252203        -0.316163        -0.967481
 C         3.439173        -1.128068         0.085764
 O         2.003794        -1.214267        -0.231537
 C         3.401772         0.231752         0.977594
 O         1.973936         0.363586         1.369994
 H        -0.556823        -0.533392         0.808127
 H        -0.216571         1.061708        -0.055951
 H        -0.397184        -0.511996        -0.934027
 H         2.008189         0.693310        -2.002415
 H         1.644340         2.002929        -0.888834
 H         4.244550         1.799155        -0.528773
 H         4.196975        -0.564391        -2.005602
 H         5.282670        -0.573775        -0.534234
 H         3.832121        -2.101207         0.343395
 H         4.044803         0.493204         1.852127
