19
Iteration:   525
 C        -0.012158        -0.029380        -0.100012
 C         1.463006         0.059059         0.051164
 C         2.126951         1.067231        -0.865043
 C         3.638669         0.993643        -0.450255
 C         4.239261        -0.343228        -0.950673
 C         3.377887        -1.075957         0.123098
 O         1.976347        -1.214435        -0.223141
 C         3.348161         0.150068         0.935365
 O         2.011623         0.392325         1.326682
 H        -0.311930        -0.930989         0.312269
 H        -0.596648         0.763347         0.542373
 H        -0.200721         0.052563        -1.129580
 H         2.073564         0.877490        -1.929688
 H         1.619841         2.050424        -0.698004
 H         4.154160         1.971205        -0.426350
 H         4.149125        -0.580483        -2.051423
 H         5.299005        -0.415581        -0.695137
 H         3.541510        -1.968523         0.735124
 H         4.005904         0.303333         1.846525
