19
Iteration:  1964
 C        -0.109809         0.007164         0.051681
 C         1.441682         0.107302        -0.036107
 C         2.187294         1.100910        -0.951013
 C         3.639729         0.927636        -0.395501
 C         4.284208        -0.315340        -0.902226
 C         3.389859        -1.121475         0.080353
 O         2.032789        -1.286165        -0.266496
 C         3.307077         0.212855         0.987454
 O         1.980042         0.382944         1.271639
 H        -0.286506        -0.470972         1.044264
 H        -0.732241         0.940371         0.038131
 H        -0.593766        -0.612901        -0.793566
 H         2.249912         0.788631        -1.982092
 H         1.832848         2.082556        -0.893042
 H         4.067824         2.001953        -0.201367
 H         4.349102        -0.468491        -1.952066
 H         5.352933        -0.262482        -0.629742
 H         3.635478        -2.088388         0.506665
 H         3.960939         0.336825         1.846501
