19
Iteration:   645
 C         0.014791        -0.029722        -0.094130
 C         1.474921         0.087677         0.013516
 C         2.175949         1.157574        -0.925007
 C         3.614654         1.011645        -0.414942
 C         4.068508        -0.363356        -0.880922
 C         3.420479        -1.148619         0.122823
 O         2.054994        -1.235526        -0.185001
 C         3.353930         0.175014         1.009517
 O         1.970932         0.352733         1.263739
 H        -0.352238        -0.504875         0.710709
 H        -0.411549         1.083524        -0.182040
 H        -0.242140        -0.429321        -1.028510
 H         2.020192         0.968127        -1.975403
 H         1.662212         2.112829        -0.634721
 H         4.332045         1.778094        -0.711250
 H         3.756975        -0.492847        -1.980691
 H         5.141638        -0.537447        -0.807374
 H         4.048044        -1.998377         0.540466
 H         3.873796         0.286777         1.929423
