19
Iteration:  4104
 C        -0.088999         0.067026        -0.004021
 C         1.453682         0.054094        -0.059997
 C         2.139654         1.167270        -0.828164
 C         3.585536         0.977147        -0.443272
 C         4.265799        -0.365142        -0.945575
 C         3.420540        -1.109932         0.112646
 O         2.069894        -1.300412        -0.307007
 C         3.329643         0.211304         0.993686
 O         1.973514         0.303485         1.312170
 H        -0.542081        -0.542953         0.796244
 H        -0.530260         1.131975         0.109122
 H        -0.398217        -0.340297        -1.042412
 H         1.869194         1.080781        -1.886520
 H         1.875112         2.157417        -0.420412
 H         4.319259         1.847866        -0.355192
 H         4.190041        -0.564536        -1.993181
 H         5.367300        -0.375025        -0.742445
 H         3.693503        -1.940289         0.715604
 H         3.914683         0.293941         1.913824
