19
Iteration:  3000charge 0 multiplicity 1
 C        -0.040358        -0.058492        -0.107321
 C         1.409932         0.152608         0.072602
 C         2.139795         1.149814        -0.807440
 C         3.606945         0.910841        -0.365375
 C         4.297648        -0.439255        -0.924903
 C         3.389125        -1.123857         0.162815
 O         2.017243        -1.171733        -0.397174
 C         3.339335         0.201178         0.956113
 O         1.998673         0.396591         1.335352
 H        -0.353565        -0.995886         0.496569
 H        -0.693006         0.732192         0.167276
 H        -0.106664        -0.181513        -1.205893
 H         1.870625         0.935149        -1.868754
 H         1.654381         2.286871        -0.643049
 H         4.060342         1.885861        -0.443181
 H         3.998909        -0.673561        -1.956851
 H         5.425250        -0.545655        -0.647311
 H         3.688612        -2.024710         0.651262
 H         4.214279         0.299288         1.687116
