19
Iteration:  3477charge 0 multiplicity 1
 C        -0.068556        -0.036815         0.045394
 C         1.419831         0.114818        -0.013668
 C         2.185471         1.145890        -0.870598
 C         3.658239         0.954170        -0.448291
 C         4.312885        -0.456419        -0.907232
 C         3.387724        -1.086929         0.169751
 O         2.070586        -1.216221        -0.357807
 C         3.329058         0.230496         0.989595
 O         1.880524         0.378903         1.237957
 H        -0.072641        -0.833429         0.750586
 H        -0.428248         0.927608         0.283606
 H        -0.495033        -0.421126        -0.883144
 H         1.923033         1.095660        -1.998921
 H         1.779912         2.131597        -0.350123
 H         4.252473         1.859942        -0.409391
 H         3.970716        -0.859069        -1.851130
 H         5.294527        -0.373557        -0.702966
 H         3.688588        -2.052704         0.696977
 H         3.894665         0.367640         1.879455
