19
Iteration:  4108
 C        -0.103494         0.084673         0.024420
 C         1.487873         0.060912        -0.031014
 C         2.142778         1.133773        -0.822867
 C         3.574426         0.989334        -0.403911
 C         4.274347        -0.372907        -0.950182
 C         3.397500        -1.096228         0.098414
 O         2.066866        -1.304404        -0.322036
 C         3.333176         0.232809         0.965029
 O         1.952027         0.291998         1.305044
 H        -0.506719        -0.637944         0.740232
 H        -0.472032         1.085939        -0.029778
 H        -0.354055        -0.243416        -0.938930
 H         1.922554         1.106744        -1.865576
 H         1.916056         2.118962        -0.524184
 H         4.258947         1.793146        -0.484305
 H         4.345507        -0.616138        -2.038646
 H         5.368316        -0.366883        -0.653175
 H         3.744313        -1.967690         0.700882
 H         3.915818         0.357253         1.889351
