19
Iteration:  4565
 C        -0.097616         0.000515         0.004198
 C         1.439034         0.118506        -0.060292
 C         2.114881         1.152758        -0.938437
 C         3.568040         0.915092        -0.448228
 C         4.383253        -0.350036        -0.888066
 C         3.393455        -1.164872         0.068336
 O         2.039811        -1.229965        -0.310284
 C         3.323667         0.174534         1.034386
 O         1.976337         0.370133         1.384324
 H        -0.377668        -0.923610         0.504360
 H        -0.611597         0.876388         0.338740
 H        -0.485826         0.074364        -0.998653
 H         1.930379         0.665333        -1.883516
 H         1.915800         2.245245        -0.778817
 H         4.123759         1.898412        -0.345816
 H         4.202429        -0.565468        -2.029686
 H         5.434384        -0.230637        -0.485321
 H         3.730748        -2.038197         0.603641
 H         4.104117         0.421112         1.712782
