19
Iteration:   886charge 0 multiplicity 1
 C         0.035942        -0.008678        -0.047866
 C         1.430664         0.007102         0.009135
 C         2.140107         1.129211        -0.931981
 C         3.626976         0.994442        -0.371037
 C         4.221869        -0.367697        -0.909061
 C         3.396161        -1.137360         0.154697
 O         2.011944        -1.314453        -0.249100
 C         3.320152         0.245245         0.933108
 O         1.965496         0.472464         1.275989
 H        -0.286226        -0.923941         0.512737
 H        -0.360783         0.923111         0.412570
 H        -0.319444         0.020606        -1.129516
 H         1.951417         0.749030        -1.980952
 H         1.683188         2.079375        -0.850384
 H         4.231267         1.887108        -0.398309
 H         4.101999        -0.745204        -1.921404
 H         5.299506        -0.360647        -0.614263
 H         3.731253        -2.036669         0.724433
 H         3.986827         0.359056         1.855546
