19
Iteration:  4802
 C        -0.080273         0.025737        -0.010520
 C         1.455494         0.067555        -0.054575
 C         2.141331         1.098561        -0.905108
 C         3.641210         1.003294        -0.340818
 C         4.234689        -0.331105        -0.878876
 C         3.400312        -1.137955         0.150526
 O         2.047035        -1.242677        -0.362069
 C         3.331946         0.178033         0.999882
 O         1.997566         0.330393         1.278404
 H        -0.237820        -0.633773         0.881479
 H        -0.479536         1.022633         0.333531
 H        -0.790510        -0.120359        -0.826554
 H         2.119675         0.787369        -1.944095
 H         1.757741         2.152121        -0.826935
 H         4.095702         2.006479        -0.502763
 H         3.975895        -0.655312        -1.949016
 H         5.398094        -0.205466        -0.583689
 H         3.707667        -2.147554         0.442251
 H         3.968021         0.362752         1.869276
