19
Iteration:   486
 C        -0.087916        -0.075683         0.004605
 C         1.430307         0.106332        -0.007157
 C         2.153531         1.187440        -0.837654
 C         3.633458         0.894405        -0.377584
 C         4.264168        -0.379714        -1.057694
 C         3.474532        -1.140731         0.226281
 O         2.055129        -1.177999        -0.254381
 C         3.314221         0.138025         0.964123
 O         1.930062         0.459132         1.233308
 H        -0.282490        -1.062415         0.499679
 H        -0.597916         0.854353         0.270097
 H        -0.457331        -0.245820        -1.062304
 H         1.920441         1.076501        -1.938629
 H         1.888560         2.150510        -0.412426
 H         4.335285         1.790129        -0.406142
 H         3.857507        -0.728274        -1.995467
 H         5.372069        -0.360781        -1.042280
 H         3.824762        -2.062029         0.698787
 H         3.910818         0.160500         1.831903
