19
Iteration:  3921
 C         0.027052        -0.030751        -0.096224
 C         1.426904         0.049847         0.043356
 C         2.152250         1.220434        -0.865093
 C         3.562403         0.912530        -0.358027
 C         4.142763        -0.387106        -0.978015
 C         3.480892        -1.132589         0.187150
 O         2.096131        -1.231501        -0.324120
 C         3.369107         0.220739         0.925348
 O         1.914520         0.380101         1.364611
 H        -0.357614        -0.602714         0.678506
 H        -0.379931         0.985167        -0.005003
 H        -0.460687        -0.387845        -1.024349
 H         1.959650         1.229808        -1.967426
 H         1.649654         2.333060        -0.575661
 H         4.322296         1.673769        -0.380844
 H         3.784448        -0.636547        -1.949857
 H         5.290904        -0.543759        -1.063550
 H         3.831385        -2.099372         0.574257
 H         3.976850         0.258816         1.852265
