19
Iteration:   341
 C        -0.021983        -0.010123        -0.068088
 C         1.443891         0.007945        -0.014947
 C         2.133583         1.111797        -0.898302
 C         3.611952         0.984128        -0.433399
 C         4.238456        -0.338349        -0.905081
 C         3.439766        -1.156874         0.120662
 O         1.984945        -1.247698        -0.237511
 C         3.369168         0.274143         0.977003
 O         1.999785         0.341077         1.337391
 H        -0.546128        -0.799009         0.381823
 H        -0.418156         1.006527         0.415041
 H        -0.427001         0.134344        -1.064354
 H         2.004041         0.923489        -1.970931
 H         1.694548         2.125556        -0.732776
 H         4.036441         2.045391        -0.429491
 H         4.010611        -0.520487        -1.981468
 H         5.285604        -0.449582        -0.689413
 H         3.671827        -2.122647         0.402544
 H         4.079558         0.510218         1.825674
