19
Iteration:  1926
 C        -0.111104        -0.052318         0.081358
 C         1.412600         0.081065        -0.070394
 C         2.215659         1.157699        -0.925422
 C         3.564025         0.896712        -0.407290
 C         4.307248        -0.399923        -0.872180
 C         3.364995        -1.121140         0.151690
 O         2.100590        -1.184975        -0.393737
 C         3.315539         0.282035         0.996274
 O         1.982391         0.401263         1.273469
 H        -0.136777        -0.752389         0.961794
 H        -0.711317         0.854542         0.319857
 H        -0.468484        -0.687384        -0.712825
 H         1.861253         0.820781        -1.943513
 H         1.761609         2.206508        -0.657041
 H         4.257163         1.691926        -0.606635
 H         4.051921        -0.816812        -1.895069
 H         5.321958        -0.405231        -0.451735
 H         3.665583        -2.112560         0.655347
 H         3.967086         0.443474         1.881475
