19
Iteration:     2
 C        -0.041471        -0.034234         0.023353
 C         1.450708         0.065355         0.010228
 C         2.154472         1.066116        -0.947154
 C         3.601366         0.940876        -0.457541
 C         4.234299        -0.392134        -0.923134
 C         3.407158        -1.088505         0.154288
 O         2.035958        -1.239856        -0.229766
 C         3.340130         0.268171         0.948307
 O         1.977656         0.438369         1.280796
 H        -0.358495        -0.766380         0.797470
 H        -0.461880         0.897246         0.237567
 H        -0.401120        -0.375848        -0.963884
 H         2.035870         0.786479        -1.978822
 H         1.757057         2.060996        -0.784575
 H         4.172653         1.842750        -0.514616
 H         4.009999        -0.698177        -1.946097
 H         5.271662        -0.449952        -0.686114
 H         3.680390        -2.012830         0.628216
 H         4.039073         0.461010         1.779492
