19
Iteration:  2817charge 0 multiplicity 1
 C        -0.023193         0.111913        -0.123857
 C         1.412223         0.006112         0.004835
 C         2.088934         1.120578        -0.844179
 C         3.572783         0.957447        -0.446021
 C         4.210153        -0.366333        -0.909438
 C         3.421748        -1.138469         0.154596
 O         2.062418        -1.336837        -0.257117
 C         3.361120         0.243979         0.950570
 O         2.016456         0.396053         1.345112
 H        -0.489806        -0.862592         0.246239
 H        -0.370350         1.061508         0.194355
 H        -0.154778         0.170290        -1.232088
 H         2.022578         0.985200        -1.930936
 H         1.610183         2.057082        -0.544221
 H         4.095335         1.909697        -0.442751
 H         4.173230        -0.669424        -1.964179
 H         5.202516        -0.286844        -0.559795
 H         3.785232        -2.067646         0.617634
 H         4.061256         0.353321         1.857870
