19
Iteration:  2187
 C        -0.069057        -0.015382         0.055563
 C         1.363310         0.082142         0.029780
 C         2.152449         1.200702        -0.888687
 C         3.640140         0.955419        -0.418923
 C         4.284749        -0.399131        -0.892062
 C         3.408898        -1.141884         0.124007
 O         2.085284        -1.237759        -0.345659
 C         3.344901         0.212619         0.964848
 O         1.947421         0.342527         1.249543
 H        -0.580536        -0.701621         0.738151
 H        -0.282808         1.109902         0.107336
 H        -0.328329        -0.393896        -0.991471
 H         1.875705         1.016045        -1.932922
 H         1.809248         2.239154        -0.720184
 H         4.278883         1.818067        -0.411464
 H         4.036215        -0.680057        -1.957900
 H         5.324774        -0.437355        -0.617675
 H         3.686316        -1.984997         0.853626
 H         3.876147         0.427783         1.856631
