19
Iteration:  4124
 C        -0.040139         0.062384         0.013121
 C         1.386847         0.020109         0.055507
 C         2.159016         1.050280        -0.897611
 C         3.629699         0.964026        -0.426444
 C         4.314448        -0.306531        -0.848289
 C         3.414525        -1.110089         0.052708
 O         2.002833        -1.211881        -0.370508
 C         3.342116         0.215451         0.940591
 O         1.956652         0.320938         1.333231
 H        -0.485822        -0.458425         0.862949
 H        -0.357851         1.064865         0.385314
 H        -0.457042        -0.310664        -0.995323
 H         2.111856         0.701295        -1.996265
 H         1.570962         2.107395        -0.703752
 H         4.109726         2.005182        -0.280117
 H         4.319163        -0.620054        -1.896823
 H         5.319636        -0.430537        -0.468698
 H         3.740724        -2.128238         0.320980
 H         4.019889         0.400480         1.774083
