19
Iteration:   122
 C        -0.067049        -0.041051        -0.068174
 C         1.427433         0.111781         0.069170
 C         2.157420         1.044653        -0.862255
 C         3.649951         0.977037        -0.451034
 C         4.229650        -0.417205        -0.953168
 C         3.394757        -1.144780         0.111628
 O         2.056919        -1.303845        -0.203829
 C         3.388010         0.265729         0.912804
 O         1.927430         0.524382         1.291381
 H        -0.332155        -1.021120         0.456387
 H        -0.628909         0.690555         0.360291
 H        -0.350021        -0.130800        -1.147638
 H         1.914675         0.945803        -1.901727
 H         1.838989         2.015127        -0.465763
 H         4.214542         1.875370        -0.504509
 H         4.036194        -0.692151        -1.999796
 H         5.226452        -0.495734        -0.642043
 H         3.889770        -1.913874         0.570102
 H         4.000879         0.473812         1.851979
