19
Iteration:  3232charge 0 multiplicity 1
 C        -0.033844        -0.114046        -0.077134
 C         1.443738         0.106951        -0.052179
 C         2.211115         1.216934        -0.783473
 C         3.703583         0.959469        -0.328920
 C         4.160790        -0.377631        -1.007526
 C         3.438490        -1.170977         0.084400
 O         2.018936        -1.281255        -0.261754
 C         3.295149         0.211567         1.059623
 O         1.923703         0.465717         1.271137
 H        -0.186943        -1.084827         0.334769
 H        -0.482632         0.679295         0.605652
 H        -0.489071         0.046034        -1.087135
 H         2.076732         1.134143        -1.888216
 H         1.924175         2.337524        -0.639747
 H         4.547427         1.623280        -0.435661
 H         3.819675        -0.630591        -1.971266
 H         5.238204        -0.410094        -1.114293
 H         3.658608        -2.095312         0.487630
 H         3.903393         0.289956         1.907877
