19
Iteration:  3345charge 0 multiplicity 1
 C        -0.101098        -0.092767        -0.030901
 C         1.384794         0.138217         0.055345
 C         2.189256         1.178888        -0.882056
 C         3.647591         0.962209        -0.313220
 C         4.304537        -0.342966        -0.926559
 C         3.338946        -1.168643         0.146703
 O         2.025318        -1.224516        -0.371238
 C         3.383232         0.159549         0.940088
 O         1.989641         0.446318         1.271575
 H        -0.426047        -0.645241         0.877981
 H        -0.639085         0.788734         0.062907
 H        -0.234854        -0.725862        -0.872015
 H         1.994668         0.762415        -1.977175
 H         1.712109         2.266117        -0.802578
 H         4.177257         1.930129        -0.199341
 H         4.159343        -0.707947        -1.988198
 H         5.330746        -0.448529        -0.765440
 H         3.510460        -2.181641         0.666809
 H         4.132145         0.232068         1.800268
