19
Iteration:  1802charge 0 multiplicity 1
 C        -0.058120        -0.121061         0.089571
 C         1.396016         0.137043        -0.013796
 C         2.224219         1.083715        -0.956188
 C         3.660451         0.882244        -0.487659
 C         4.343523        -0.387129        -0.855576
 C         3.357448        -1.103164         0.102705
 O         1.991855        -1.127395        -0.318287
 C         3.285005         0.177475         1.004115
 O         1.953276         0.421309         1.278326
 H        -0.086283        -0.611702         1.016350
 H        -0.623398         0.815208         0.267643
 H        -0.525827        -0.587086        -0.792628
 H         2.101529         0.809222        -2.129358
 H         1.773630         2.128433        -0.785789
 H         4.213742         1.800593        -0.469107
 H         4.419629        -0.510743        -1.934506
 H         5.364955        -0.174485        -0.318964
 H         3.500097        -2.103118         0.444168
 H         3.956799         0.529754         1.823537
