19
Iteration:  4561charge 0 multiplicity 1
 C        -0.093270         0.004200         0.021819
 C         1.414081         0.135012        -0.036576
 C         2.113387         1.136014        -0.924223
 C         3.601410         0.925854        -0.458190
 C         4.392937        -0.329579        -0.864106
 C         3.392370        -1.183913         0.097475
 O         2.037528        -1.216502        -0.318111
 C         3.301168         0.165314         1.000015
 O         1.980260         0.363693         1.350994
 H        -0.468367        -0.974874         0.501420
 H        -0.620082         0.913340         0.464285
 H        -0.482039        -0.044465        -1.039981
 H         1.849664         0.807122        -1.961075
 H         1.833641         2.232205        -0.869101
 H         4.215893         1.807122        -0.389831
 H         4.335130        -0.568347        -1.947412
 H         5.406166        -0.212249        -0.599740
 H         3.815832        -2.073852         0.591658
 H         4.086007         0.349152         1.774390
