19
Iteration:  1797
 C        -0.036216        -0.107416         0.117571
 C         1.381365         0.129321        -0.036501
 C         2.240186         1.109315        -0.966130
 C         3.675679         0.884287        -0.485980
 C         4.323130        -0.345878        -0.854069
 C         3.355792        -1.129872         0.114301
 O         1.976710        -1.142187        -0.322745
 C         3.306109         0.181644         0.999398
 O         1.944948         0.415454         1.275736
 H        -0.256755        -0.733165         1.057537
 H        -0.553869         0.881112         0.123052
 H        -0.463579        -0.629522        -0.738705
 H         2.150767         0.793460        -1.925612
 H         1.773860         2.048477        -0.844847
 H         4.239579         1.889133        -0.601401
 H         4.447232        -0.500267        -1.954805
 H         5.314092        -0.294526        -0.472760
 H         3.626112        -2.130656         0.570185
 H         3.743147         0.476834         1.956008
