19
Iteration:  1608
 C        -0.018478         0.016487        -0.087861
 C         1.448798         0.018187        -0.007703
 C         2.244583         1.122022        -0.843869
 C         3.625719         1.013112        -0.340396
 C         4.113324        -0.400876        -1.005417
 C         3.393329        -1.098835         0.127001
 O         2.017671        -1.323159        -0.217583
 C         3.355988         0.225839         0.946266
 O         1.974197         0.424341         1.325926
 H        -0.475425        -0.658612         0.588607
 H        -0.514186         1.046667        -0.114663
 H        -0.339169        -0.319513        -1.162381
 H         2.165250         0.930457        -1.901383
 H         1.914633         2.066157        -0.615678
 H         4.189195         1.946238        -0.281881
 H         3.850938        -0.435967        -2.022501
 H         5.188844        -0.501580        -0.889032
 H         3.922350        -2.045853         0.434406
 H         3.990130         0.424662         1.865581
