19
Iteration:  2691charge 0 multiplicity 1
 C        -0.030081         0.029976        -0.121011
 C         1.490479         0.028528        -0.023157
 C         2.214031         1.121769        -0.939732
 C         3.621838         0.971262        -0.350781
 C         4.197596        -0.249787        -0.996334
 C         3.434281        -1.115026         0.144189
 O         1.993930        -1.335358        -0.117069
 C         3.305251         0.170653         0.939412
 O         1.975065         0.424181         1.339798
 H        -0.435090        -0.733356         0.537646
 H        -0.442071         1.038009         0.144412
 H        -0.178244        -0.185782        -1.172554
 H         1.875043         0.824920        -1.911849
 H         1.673762         2.040577        -0.743100
 H         4.222392         1.858506        -0.444664
 H         3.720082        -0.587907        -1.964275
 H         5.275639        -0.529881        -1.013069
 H         3.814140        -2.121338         0.437972
 H         3.894263         0.312973         1.828728
