19
Iteration:  1178charge 0 multiplicity 1
 C        -0.001756        -0.038040        -0.130568
 C         1.473351         0.025050         0.019650
 C         2.186875         1.164026        -0.824863
 C         3.672824         0.969221        -0.382801
 C         4.146937        -0.364668        -0.953167
 C         3.401932        -1.109217         0.127583
 O         1.994057        -1.253576        -0.271537
 C         3.341052         0.226294         0.973837
 O         1.984016         0.417066         1.335154
 H        -0.515603        -0.627277         0.664563
 H        -0.468797         0.914833        -0.154162
 H        -0.225430        -0.555401        -1.089146
 H         2.059059         1.194845        -1.939726
 H         1.619083         1.965327        -0.376489
 H         4.197744         1.946349        -0.522060
 H         3.778862        -0.601359        -1.974254
 H         5.216774        -0.672713        -0.919221
 H         3.716030        -2.121490         0.567055
 H         4.043237         0.297806         1.858157
