19
Iteration:  4361
 C        -0.039562         0.075742        -0.079943
 C         1.519320         0.100303        -0.029135
 C         2.151259         1.108981        -0.871668
 C         3.560033         0.922479        -0.374849
 C         4.207450        -0.400280        -0.974859
 C         3.482135        -1.100562         0.173770
 O         2.038268        -1.255131        -0.275738
 C         3.296316         0.238417         1.025409
 O         1.961980         0.319870         1.314034
 H        -0.528205        -0.744197         0.458517
 H        -0.589920         0.934410         0.383212
 H        -0.233998         0.015481        -1.206142
 H         1.902830         0.820250        -1.908481
 H         1.817863         2.060714        -0.652284
 H         4.222826         1.815402        -0.495524
 H         3.845878        -0.507312        -1.933333
 H         5.312774        -0.337685        -0.911344
 H         3.924248        -2.090595         0.471435
 H         3.922162         0.479069         1.845257
