19
Iteration:  2053charge 0 multiplicity 1
 C        -0.054653        -0.068971         0.035504
 C         1.423415         0.115718         0.035990
 C         2.216244         1.123346        -0.913795
 C         3.613454         0.950095        -0.378645
 C         4.253406        -0.405152        -0.868379
 C         3.341424        -1.152136         0.075756
 O         2.013183        -1.246199        -0.346934
 C         3.350421         0.289100         0.955865
 O         1.938748         0.459556         1.289668
 H        -0.055625        -1.165193         0.436326
 H        -0.487051         0.628844         0.727671
 H        -0.329397        -0.055417        -1.021813
 H         2.230512         0.713011        -1.931885
 H         1.819099         2.073676        -0.907515
 H         4.386481         1.783715        -0.274048
 H         4.092761        -0.563160        -1.882308
 H         5.352422        -0.488797        -0.769051
 H         3.787182        -2.071998         0.418005
 H         3.963081         0.340933         1.896114
