19
Iteration:   547charge 0 multiplicity 1
 C        -0.172965         0.075403         0.009713
 C         1.378147         0.056925        -0.033370
 C         2.154760         1.074894        -0.943995
 C         3.608993         0.893571        -0.308410
 C         4.267070        -0.304626        -0.959357
 C         3.538986        -1.154228         0.042829
 O         2.074508        -1.337129        -0.253819
 C         3.348016         0.273229         0.996343
 O         1.947545         0.418802         1.315486
 H        -0.627054        -0.600243         0.581847
 H        -0.453048         1.081166         0.647161
 H        -0.440660         0.132774        -0.983863
 H         2.072103         0.734555        -1.990279
 H         1.792397         2.139774        -0.952458
 H         4.158833         1.860975        -0.396411
 H         4.284984        -0.589075        -2.061507
 H         5.291176        -0.382511        -0.599243
 H         3.892887        -2.220940         0.262937
 H         3.921497         0.376695         1.946321
