19
Iteration:  2993
 C        -0.020616        -0.111142        -0.133763
 C         1.449769         0.146596         0.039186
 C         2.104234         1.158412        -0.835050
 C         3.635344         0.885583        -0.366870
 C         4.203765        -0.395190        -0.939827
 C         3.387518        -1.124690         0.215218
 O         2.008800        -1.182425        -0.407675
 C         3.347859         0.230024         0.994302
 O         2.013569         0.416007         1.356688
 H        -0.503863        -0.864337         0.445545
 H        -0.588708         0.783269         0.193279
 H        -0.152468        -0.251796        -1.202023
 H         1.906674         1.118242        -1.889951
 H         1.905518         2.074676        -0.436984
 H         4.314126         1.748959        -0.393244
 H         4.033566        -0.633721        -2.050701
 H         5.242073        -0.606346        -0.777294
 H         3.807923        -2.092149         0.530552
 H         4.103590         0.341450         1.804448
