19
Iteration:  3818charge 0 multiplicity 1
 C        -0.013349        -0.063720        -0.063632
 C         1.446132         0.119919        -0.046138
 C         2.164737         1.212395        -0.832527
 C         3.598855         0.899160        -0.396177
 C         4.208876        -0.383214        -0.962889
 C         3.409317        -1.111349         0.167670
 O         2.042840        -1.229213        -0.265101
 C         3.378771         0.229021         1.001588
 O         1.926245         0.371596         1.264815
 H        -0.392546        -0.997133         0.465731
 H        -0.528006         0.718495         0.519735
 H        -0.350186        -0.094460        -1.073532
 H         1.904420         1.184616        -1.904723
 H         1.733436         2.136366        -0.376474
 H         4.362346         1.705454        -0.520116
 H         4.054950        -0.847689        -2.021876
 H         5.335616        -0.417242        -0.828080
 H         3.788532        -2.081746         0.526800
 H         3.987244         0.417213         1.886157
