19
Iteration:   425
 C        -0.127318         0.097280         0.044873
 C         1.442321         0.009272        -0.000770
 C         2.074347         1.008777        -0.934580
 C         3.650065         0.941641        -0.340827
 C         4.352055        -0.346018        -0.952216
 C         3.477384        -1.146264         0.040723
 O         2.117586        -1.180497        -0.314333
 C         3.257115         0.217304         0.955223
 O         1.922400         0.378369         1.340602
 H        -0.663296        -0.257248         1.004624
 H        -0.382427         1.120617         0.075837
 H        -0.632505        -0.410305        -0.794296
 H         1.924970         0.761944        -1.963326
 H         1.697153         2.024122        -0.711886
 H         4.061225         1.874187        -0.192837
 H         4.374961        -0.413318        -2.068141
 H         5.387982        -0.489325        -0.573593
 H         3.775187        -2.253421         0.316465
 H         4.029903         0.318368         1.820236
