19
Iteration:  1102charge 0 multiplicity 1
 C        -0.061355        -0.057213         0.073650
 C         1.410531         0.135794        -0.000602
 C         2.194972         1.186904        -1.023830
 C         3.643933         0.953066        -0.476930
 C         4.362688        -0.410643        -0.842446
 C         3.361741        -1.081478         0.132501
 O         2.011142        -1.191066        -0.307785
 C         3.318717         0.163178         0.964461
 O         1.949396         0.342320         1.289857
 H        -0.303057        -0.956502         0.585949
 H        -0.509851         0.644457         0.687796
 H        -0.533183        -0.155853        -0.911997
 H         1.931026         0.979600        -2.089090
 H         1.871500         2.223440        -0.785934
 H         4.095482         1.865422        -0.204677
 H         4.298161        -0.619828        -1.925734
 H         5.362793        -0.273102        -0.433447
 H         3.427306        -2.118279         0.593930
 H         3.939843         0.143914         1.926502
