19
Iteration:   864
 C        -0.179163        -0.107315         0.033158
 C         1.350307         0.130987        -0.036357
 C         2.235208         1.105787        -0.961353
 C         3.657286         0.869605        -0.476257
 C         4.339070        -0.397311        -0.890785
 C         3.476612        -1.096133         0.158754
 O         2.017820        -1.105821        -0.271321
 C         3.335357         0.240818         0.980989
 O         1.950057         0.389637         1.304810
 H        -0.226784        -0.970469         0.713061
 H        -0.835961         0.762092         0.401743
 H        -0.578376        -0.330568        -1.021971
 H         1.943069         0.852747        -2.019834
 H         2.048085         2.136636        -0.789985
 H         4.152955         1.820399        -0.543097
 H         4.287683        -0.654535        -1.953140
 H         5.357726        -0.530554        -0.464847
 H         3.592697        -2.124395         0.578663
 H         3.919619         0.373720         1.948835
