19
Iteration:  2100
 C        -0.089578         0.122288         0.070780
 C         1.474395         0.001726        -0.012051
 C         2.126796         1.074060        -0.905865
 C         3.625948         1.015751        -0.422780
 C         4.288651        -0.375868        -0.850044
 C         3.403767        -1.139413         0.096954
 O         2.047262        -1.311528        -0.360290
 C         3.310565         0.241252         0.975386
 O         1.934660         0.336603         1.275354
 H        -0.586618        -0.599640         0.780880
 H        -0.374978         1.185275         0.376003
 H        -0.393281        -0.154784        -0.988470
 H         1.947756         0.859854        -2.005530
 H         1.917198         2.200177        -0.692970
 H         4.122457         1.941466        -0.334547
 H         4.426074        -0.638226        -1.983863
 H         5.354685        -0.358992        -0.579601
 H         4.005018        -1.955960         0.659025
 H         3.902817         0.658914         1.779627
