19
Iteration:  2945
 C        -0.073277         0.055038        -0.082925
 C         1.446908         0.006089         0.033829
 C         2.246211         1.092310        -0.882226
 C         3.637823         0.993452        -0.331323
 C         4.212315        -0.267863        -0.953917
 C         3.378471        -1.162091         0.060967
 O         2.031766        -1.306026        -0.257735
 C         3.318248         0.200819         1.023675
 O         1.961164         0.393815         1.305131
 H        -0.630291        -0.355983         0.791833
 H        -0.433576         1.077304        -0.106978
 H        -0.337413        -0.485545        -1.005221
 H         2.168726         0.847001        -1.958131
 H         1.636671         2.052370        -0.679398
 H         4.226063         1.905915        -0.390651
 H         3.972918        -0.436994        -2.004744
 H         5.363492        -0.383348        -0.859592
 H         3.745909        -2.099587         0.367947
 H         4.122251         0.284119         1.759465
