19
Iteration:  4592
 C        -0.041847        -0.002257        -0.060996
 C         1.479866         0.047059         0.009044
 C         2.156101         1.099198        -0.834556
 C         3.706645         1.017916        -0.391272
 C         4.182764        -0.292685        -0.941364
 C         3.370792        -1.130013         0.132745
 O         2.020452        -1.271435        -0.252695
 C         3.324070         0.198614         0.981969
 O         1.975797         0.360204         1.248382
 H        -0.515847        -0.866629         0.451429
 H        -0.517702         0.978666         0.154505
 H        -0.183446        -0.014552        -1.161568
 H         2.014207         0.647523        -1.841077
 H         1.721344         2.054191        -0.613510
 H         4.349109         1.872862        -0.373822
 H         3.726176        -0.423684        -1.854962
 H         5.277835        -0.320162        -0.955549
 H         3.776517        -2.019376         0.714399
 H         3.994553         0.241625         1.887887
