19
Iteration:  4336
 C        -0.053515        -0.017556        -0.106291
 C         1.496340        -0.007657        -0.059001
 C         2.236343         1.155543        -0.838482
 C         3.653743         1.047683        -0.312335
 C         4.162549        -0.376134        -0.953627
 C         3.371491        -1.094798         0.079295
 O         2.015817        -1.319988        -0.184243
 C         3.321020         0.230479         0.930998
 O         1.985629         0.420388         1.308661
 H        -0.641435        -0.761150         0.547313
 H        -0.557438         0.908095         0.244406
 H        -0.340608        -0.152622        -1.183410
 H         2.149325         0.929429        -1.935100
 H         1.706019         2.136427        -0.587021
 H         4.412417         1.877394        -0.358515
 H         3.714743        -0.462894        -1.844579
 H         5.207891        -0.598401        -0.932992
 H         3.792511        -2.051695         0.471548
 H         4.002658         0.144492         1.789845
