19
Iteration:  4446charge 0 multiplicity 1
 C        -0.085566         0.001310        -0.057438
 C         1.464472         0.084773        -0.040752
 C         2.216981         1.112262        -0.869704
 C         3.619102         0.966944        -0.338951
 C         4.201078        -0.381391        -0.941673
 C         3.435593        -1.139411         0.152089
 O         2.025403        -1.212248        -0.305500
 C         3.395182         0.247257         1.020029
 O         1.936333         0.343357         1.301487
 H        -0.371503        -0.638102         0.798252
 H        -0.469337         1.042997        -0.036430
 H        -0.590645        -0.427732        -1.025804
 H         2.045028         0.910110        -2.039810
 H         1.616639         2.057253        -0.521502
 H         4.193116         1.949006        -0.405437
 H         3.905193        -0.595506        -2.033815
 H         5.337940        -0.537681        -0.931737
 H         3.644059        -2.236468         0.462475
 H         4.064444         0.503704         1.802800
