19
Iteration:  1957charge 0 multiplicity 1
 C        -0.108559         0.005208         0.100565
 C         1.457970         0.080217        -0.014143
 C         2.238283         1.120136        -0.962916
 C         3.618905         0.957288        -0.367687
 C         4.329323        -0.297386        -0.866352
 C         3.395046        -1.108862         0.099518
 O         2.013145        -1.281297        -0.306203
 C         3.280224         0.179759         0.941014
 O         1.948280         0.409317         1.226433
 H        -0.254779        -0.586106         1.037001
 H        -0.555841         0.945976         0.105009
 H        -0.345519        -0.713025        -0.607074
 H         1.974534         0.810239        -2.011185
 H         1.740823         2.113078        -0.828221
 H         4.118192         1.855765        -0.393865
 H         4.173091        -0.623523        -1.910900
 H         5.429976        -0.397696        -0.632698
 H         3.597302        -2.049425         0.594162
 H         3.926908         0.189662         1.843025
