19
Iteration:  2214charge 0 multiplicity 1
 C        -0.038409         0.093032         0.067114
 C         1.364173         0.043463        -0.111620
 C         2.175015         0.963367        -1.029430
 C         3.606397         0.945801        -0.317443
 C         4.334074        -0.252844        -0.899904
 C         3.397466        -1.115942         0.090949
 O         2.012805        -1.230262        -0.328318
 C         3.363167         0.197494         1.012014
 O         1.943093         0.337058         1.347018
 H        -0.404844        -0.692238         0.779477
 H        -0.168557         1.022859         0.528448
 H        -0.584467        -0.034862        -0.820842
 H         2.043960         0.711713        -2.104161
 H         1.706877         1.988726        -0.951538
 H         4.133709         1.954211        -0.324472
 H         4.214195        -0.424765        -1.974105
 H         5.470153        -0.325477        -0.677985
 H         3.556960        -1.987983         0.662367
 H         4.035321         0.408328         1.924895
