19
Iteration:  2160
 C        -0.048262        -0.136204        -0.147834
 C         1.398858         0.071359        -0.068404
 C         2.209570         1.177834        -0.773050
 C         3.628026         0.955632        -0.453445
 C         4.183411        -0.399012        -0.943061
 C         3.419396        -1.126462         0.069013
 O         1.968785        -1.166334        -0.245059
 C         3.337338         0.163806         1.022480
 O         2.041901         0.468760         1.371763
 H        -0.275014        -0.767272         0.725657
 H        -0.521016         0.799065        -0.177268
 H        -0.232120        -0.713555        -1.027844
 H         1.936800         1.025000        -1.826909
 H         1.881188         2.174684        -0.471921
 H         4.304488         1.887231        -0.490527
 H         3.956544        -0.687350        -1.941605
 H         5.258472        -0.475612        -0.644871
 H         3.686780        -2.033413         0.520123
 H         4.013908         0.301398         1.925729
