19
Iteration:  2458
 C         0.003268         0.061873        -0.009077
 C         1.449206        -0.010090        -0.023555
 C         2.109990         1.084931        -0.830390
 C         3.578271         0.961604        -0.445400
 C         4.224289        -0.352159        -0.917704
 C         3.407698        -1.096949         0.158235
 O         2.065714        -1.363875        -0.298375
 C         3.369059         0.292534         0.956892
 O         1.963039         0.378524         1.271974
 H        -0.642478        -0.633317         0.448405
 H        -0.429761         0.964545         0.455739
 H        -0.411322         0.227613        -1.038035
 H         1.913390         0.997206        -1.967704
 H         1.747347         2.163501        -0.609419
 H         4.285773         1.805360        -0.406199
 H         4.193115        -0.469440        -2.056281
 H         5.308727        -0.231055        -0.640339
 H         3.677090        -2.019538         0.748663
 H         3.921172         0.475509         1.901792
