19
Iteration:  3982
 C        -0.125959         0.057773         0.016754
 C         1.496200         0.092480         0.007184
 C         2.112169         1.081274        -0.953934
 C         3.607917         0.979532        -0.353213
 C         4.277200        -0.283729        -0.868683
 C         3.423402        -1.175293         0.115448
 O         2.012139        -1.232811        -0.318617
 C         3.359959         0.160761         0.990187
 O         1.981909         0.356773         1.258615
 H        -0.418708        -0.841653         0.670789
 H        -0.528133         0.884021         0.651325
 H        -0.501859        -0.125930        -1.023218
 H         2.228682         0.737547        -1.976344
 H         1.742475         2.024137        -0.830156
 H         4.147772         1.994653        -0.421479
 H         4.131347        -0.507089        -1.973547
 H         5.370404        -0.296951        -0.717761
 H         3.876276        -2.170213         0.312189
 H         3.957176         0.191612         1.906708
