19
Iteration:  3998
 C        -0.046028         0.093640         0.091791
 C         1.383036         0.004076        -0.089430
 C         2.188680         1.046948        -0.947825
 C         3.603146         0.965332        -0.354751
 C         4.294276        -0.334012        -0.939721
 C         3.432597        -1.046653         0.121775
 O         2.076116        -1.213340        -0.365662
 C         3.309036         0.228615         0.997984
 O         1.929443         0.249634         1.318223
 H        -0.493576        -0.648080         0.684459
 H        -0.189344         1.077317         0.503613
 H        -0.673864         0.152129        -0.764570
 H         2.025556         0.692149        -1.982067
 H         1.748841         2.134529        -0.803743
 H         4.197213         1.825943        -0.322916
 H         4.067386        -0.564875        -1.956613
 H         5.353457        -0.448391        -0.509504
 H         3.661858        -1.994781         0.601048
 H         3.960091         0.517795         1.830236
