19
Iteration:  3531
 C        -0.064596         0.028029        -0.196263
 C         1.416828         0.057414         0.025485
 C         2.151013         1.061060        -0.813660
 C         3.602352         0.910454        -0.389554
 C         4.275598        -0.328736        -0.984515
 C         3.357383        -1.070365         0.066851
 O         1.987459        -1.237354        -0.143197
 C         3.346040         0.223883         0.966885
 O         2.034837         0.353508         1.335316
 H        -0.553621        -0.590551         0.532075
 H        -0.207277         1.067461        -0.024989
 H        -0.059503        -0.409716        -1.192885
 H         1.956927         0.602682        -1.838617
 H         1.764640         2.112563        -0.558325
 H         4.087307         1.857785        -0.395193
 H         4.123879        -0.402140        -2.116320
 H         5.320229        -0.369950        -0.757277
 H         3.880527        -1.931565         0.540141
 H         4.033594         0.447618         1.726702
