19
Iteration:  2077charge 0 multiplicity 1
 C        -0.131927         0.034253         0.079270
 C         1.423697         0.064709        -0.058152
 C         2.130541         1.042061        -0.991498
 C         3.591623         0.914184        -0.442478
 C         4.377290        -0.341578        -0.839055
 C         3.368633        -1.086518         0.117286
 O         2.026958        -1.141508        -0.333894
 C         3.373964         0.142668         0.997191
 O         1.945580         0.366705         1.305276
 H        -0.267551        -0.950718         0.683446
 H        -0.414718         0.893369         0.733653
 H        -0.564307        -0.012404        -0.926185
 H         2.064123         0.698452        -2.069373
 H         1.837284         2.130146        -0.888633
 H         4.161791         1.829848        -0.400163
 H         4.485856        -0.511372        -1.938962
 H         5.437375        -0.226108        -0.546590
 H         3.765440        -1.999405         0.649224
 H         4.044944         0.135604         1.890442
