19
Iteration:  4746
 C        -0.090748        -0.058342        -0.127689
 C         1.452782         0.058264         0.107911
 C         2.117807         1.164559        -0.887384
 C         3.619481         0.991509        -0.337832
 C         4.166104        -0.381923        -0.946406
 C         3.357023        -1.127024         0.127983
 O         2.015608        -1.218185        -0.281577
 C         3.403325         0.194434         0.962205
 O         2.037212         0.396311         1.343049
 H        -0.427123        -1.095967         0.190826
 H        -0.575121         0.916236         0.091979
 H        -0.064104        -0.159003        -1.190934
 H         2.086134         1.185223        -1.967049
 H         1.764490         2.175560        -0.604891
 H         4.353626         1.769673        -0.618395
 H         4.187505        -0.687926        -2.007237
 H         5.414205        -0.383264        -0.716911
 H         3.766600        -2.105886         0.338209
 H         4.057172         0.265603         1.809574
