19
Iteration:  2369
 C        -0.128269         0.093802         0.113849
 C         1.413400         0.078028         0.001347
 C         2.187587         1.138840        -0.925137
 C         3.592177         0.961666        -0.429087
 C         4.306018        -0.363141        -0.851728
 C         3.475083        -1.122086         0.140215
 O         2.081034        -1.277402        -0.383763
 C         3.294406         0.238395         0.958936
 O         1.933744         0.281962         1.257772
 H        -0.364299        -0.483932         0.955590
 H        -0.467022         1.135895         0.044096
 H        -0.455478        -0.354375        -0.828315
 H         1.976154         0.728788        -1.961689
 H         1.637918         2.043803        -0.542348
 H         4.164837         1.961087        -0.480548
 H         4.122977        -0.653396        -1.886644
 H         5.461657        -0.312592        -0.676627
 H         3.864170        -2.043022         0.552209
 H         3.860392         0.420177         1.819040
