19
Iteration:  1420charge 0 multiplicity 1
 C        -0.053758         0.025961         0.020526
 C         1.497926         0.062117        -0.005227
 C         2.152998         1.179921        -0.924083
 C         3.583705         0.981345        -0.289487
 C         4.216850        -0.364484        -0.944644
 C         3.415815        -1.114775         0.137285
 O         2.082548        -1.240621        -0.312565
 C         3.321754         0.113030         0.950599
 O         1.938943         0.372640         1.235316
 H        -0.299001        -0.716531         0.930675
 H        -0.453360         1.085441         0.230036
 H        -0.534569        -0.354246        -0.891871
 H         2.113633         0.907618        -2.022542
 H         1.902175         2.183277        -0.791700
 H         4.147257         1.894042        -0.336972
 H         3.993828        -0.577589        -1.997102
 H         5.340477        -0.541857        -0.761053
 H         3.726615        -2.063235         0.743920
 H         3.818611         0.299036         1.873453
