19
Iteration:  3462charge 0 multiplicity 1
 C        -0.091403        -0.050290         0.070993
 C         1.444442         0.068896        -0.043907
 C         2.132260         1.221038        -0.918958
 C         3.610463         0.857326        -0.427550
 C         4.314084        -0.391740        -0.851785
 C         3.413183        -1.159608         0.188647
 O         2.069355        -1.203531        -0.426232
 C         3.258547         0.227373         0.935861
 O         1.960926         0.433936         1.327927
 H        -0.622822        -0.814035         0.838109
 H        -0.567548         0.835120         0.576099
 H        -0.475974        -0.311611        -0.944179
 H         2.023921         1.055984        -2.002652
 H         1.960110         2.241340        -0.639202
 H         4.210299         1.797477        -0.616195
 H         4.517957        -0.714701        -1.937602
 H         5.432199        -0.605759        -0.374484
 H         3.768763        -2.095569         0.552964
 H         4.009306         0.478188         1.758927
