19
Iteration:  1539
 C        -0.106174         0.030286         0.044021
 C         1.439310         0.054634         0.011307
 C         2.181204         1.098901        -0.941678
 C         3.574060         0.936587        -0.395454
 C         4.348190        -0.359248        -0.874176
 C         3.433082        -1.143799         0.054833
 O         2.020301        -1.149423        -0.324976
 C         3.295304         0.160647         0.983717
 O         1.954766         0.388810         1.271752
 H        -0.144221        -0.617951         0.985658
 H        -0.399540         1.091004         0.221027
 H        -0.476109        -0.340253        -0.892353
 H         2.050175         0.712685        -2.015054
 H         1.608351         2.034269        -0.754833
 H         4.109057         1.859493        -0.335268
 H         4.389405        -0.670787        -1.913860
 H         5.305474        -0.537834        -0.349639
 H         3.746815        -2.028388         0.580595
 H         3.949441         0.161882         1.812769
