19
Iteration:  3525charge 0 multiplicity 1
 C        -0.037230         0.019763        -0.183453
 C         1.434549         0.094323         0.048818
 C         2.118476         1.034888        -0.793549
 C         3.611637         0.952934        -0.412053
 C         4.238373        -0.308014        -1.001444
 C         3.416288        -1.104982         0.053054
 O         1.985749        -1.274058        -0.143935
 C         3.405793         0.158158         0.957758
 O         1.972963         0.422164         1.348124
 H        -0.610436        -0.684943         0.466087
 H        -0.342093         1.127064        -0.287607
 H        -0.118644        -0.365328        -1.217942
 H         2.081762         0.657147        -1.802288
 H         1.721843         2.038736        -0.709025
 H         4.227236         1.894790        -0.348550
 H         4.074217        -0.256233        -2.052594
 H         5.324278        -0.409685        -0.671085
 H         3.673167        -2.036968         0.575397
 H         4.094107         0.325547         1.844013
