19
Iteration:   432
 C        -0.117830         0.116295         0.037324
 C         1.437366         0.013981         0.027480
 C         2.061013         1.007399        -0.956550
 C         3.595228         0.966417        -0.305333
 C         4.391319        -0.316894        -0.947496
 C         3.441655        -1.097553         0.030653
 O         2.084153        -1.176783        -0.300586
 C         3.267863         0.169179         0.928504
 O         1.969213         0.327631         1.350859
 H        -0.462675        -0.290980         1.058990
 H        -0.381135         1.172354         0.018118
 H        -0.545762        -0.372204        -0.901521
 H         1.986724         0.597675        -2.008776
 H         1.733934         2.041609        -1.003878
 H         4.035420         2.010929        -0.295299
 H         4.460806        -0.616950        -1.997572
 H         5.390061        -0.649334        -0.493268
 H         3.791269        -2.109788         0.419122
 H         3.940244         0.323207         1.710409
