19
Iteration:  4939charge 0 multiplicity 1
 C        -0.168934         0.032873         0.024816
 C         1.415519         0.027325        -0.052695
 C         2.245256         1.111567        -0.942277
 C         3.630110         0.911934        -0.328627
 C         4.306872        -0.319962        -0.885278
 C         3.448978        -1.137349         0.078865
 O         2.035123        -1.179183        -0.315957
 C         3.309496         0.209386         0.980394
 O         1.944672         0.324340         1.333222
 H        -0.359653        -0.814225         0.730153
 H        -0.356628         1.079486         0.404178
 H        -0.574072        -0.035782        -0.955434
 H         2.129508         0.721606        -2.005265
 H         1.791250         2.084965        -0.929900
 H         4.083164         1.946587        -0.446297
 H         4.021379        -0.420416        -1.975398
 H         5.348748        -0.263107        -0.732604
 H         3.645820        -2.164195         0.430126
 H         4.068300         0.336602         1.788423
