19
Iteration:  3854
 C        -0.053072        -0.002651         0.082884
 C         1.460660         0.072814        -0.011718
 C         2.108626         1.034520        -0.934466
 C         3.654824         0.905441        -0.336300
 C         4.272186        -0.329915        -0.890572
 C         3.376174        -1.065645         0.051679
 O         2.026943        -1.203770        -0.399875
 C         3.363650         0.167561         1.025029
 O         1.920809         0.391401         1.292840
 H        -0.265190        -0.749355         0.800936
 H        -0.485524         0.960633         0.258689
 H        -0.557026        -0.311260        -0.853383
 H         2.156410         0.798402        -2.031955
 H         1.989399         2.233402        -0.818780
 H         4.254216         1.857108        -0.400599
 H         4.173604        -0.608274        -1.913233
 H         5.310025        -0.095544        -0.524817
 H         3.693455        -1.926142         0.615908
 H         4.087688         0.277622         1.821566
