19
Iteration:   574charge 0 multiplicity 1
 C         0.042982         0.092957         0.086939
 C         1.460041         0.062732        -0.066685
 C         2.183555         1.019013        -0.990116
 C         3.582364         0.957484        -0.404685
 C         4.301791        -0.248759        -0.832177
 C         3.394198        -1.097305         0.209290
 O         1.986609        -1.261490        -0.343033
 C         3.299174         0.230863         0.894512
 O         1.946229         0.281609         1.285738
 H        -0.225032        -0.633152         1.049784
 H        -0.242972         1.074847         0.389877
 H        -0.449010        -0.159091        -0.957215
 H         1.863863         0.767459        -2.077650
 H         1.877258         2.031114        -0.711641
 H         3.943731         2.027381        -0.390214
 H         4.001352        -0.592797        -1.792166
 H         5.401134        -0.337133        -0.690505
 H         3.433248        -2.116076         0.683933
 H         4.024350         0.234415         1.726576
