19
Iteration:  4975
 C        -0.016853        -0.026655         0.016003
 C         1.419487         0.076565        -0.095529
 C         2.229324         1.116613        -0.857452
 C         3.612646         0.916530        -0.380020
 C         4.240980        -0.301090        -0.889024
 C         3.394497        -1.220789         0.093706
 O         2.022142        -1.215108        -0.349407
 C         3.319233         0.237084         0.939899
 O         1.924095         0.402711         1.342668
 H        -0.407313        -0.775690         0.778460
 H        -0.377613         0.939046         0.472385
 H        -0.562886        -0.251982        -0.957522
 H         2.174298         1.035635        -1.967735
 H         1.932521         2.157583        -0.480834
 H         4.231791         1.883745        -0.352091
 H         4.226999        -0.580480        -1.873050
 H         5.282476        -0.413971        -0.545463
 H         3.772590        -2.228009         0.376576
 H         3.914427         0.478920         1.805667
