19
Iteration:  4413charge 0 multiplicity 1
 C        -0.031604        -0.057926         0.079594
 C         1.470396         0.139711        -0.042707
 C         2.195881         1.107576        -0.939120
 C         3.645173         0.982769        -0.322894
 C         4.316704        -0.374672        -0.890089
 C         3.331248        -1.160955         0.091432
 O         1.992293        -1.219429        -0.328373
 C         3.332806         0.182148         0.959507
 O         1.907452         0.409975         1.257763
 H        -0.293789        -0.782885         0.889926
 H        -0.555214         0.857488         0.438318
 H        -0.636567        -0.399249        -0.820617
 H         2.246013         0.898564        -2.072927
 H         1.808205         2.183552        -0.805341
 H         4.239868         1.945944        -0.267981
 H         4.342951        -0.536532        -1.981407
 H         5.359562        -0.439945        -0.494870
 H         3.748864        -2.172085         0.288328
 H         3.935045         0.400228         1.808200
