19
Iteration:  1567
 C        -0.123581        -0.085396        -0.068287
 C         1.439531         0.104580         0.062139
 C         2.231186         1.201059        -0.875798
 C         3.624231         0.884892        -0.392553
 C         4.197368        -0.412530        -0.907370
 C         3.398432        -1.104540         0.092088
 O         2.018368        -1.190536        -0.348097
 C         3.324643         0.268624         0.953501
 O         2.003712         0.381503         1.343793
 H        -0.287228        -0.633523         0.843488
 H        -0.593104         0.859817        -0.073068
 H        -0.190373        -0.673712        -0.990593
 H         2.124461         1.046024        -1.912815
 H         1.776446         2.184250        -0.580656
 H         4.381399         1.759213        -0.408550
 H         3.983735        -0.832638        -1.955223
 H         5.221188        -0.593424        -0.585890
 H         3.744609        -1.982619         0.687340
 H         4.103300         0.361756         1.763100
