19
Iteration:  2389
 C        -0.075064        -0.101815        -0.031723
 C         1.449254         0.044774        -0.039758
 C         2.149506         1.175679        -0.879400
 C         3.644931         0.900652        -0.375152
 C         4.301131        -0.344463        -0.984907
 C         3.359128        -1.106019         0.129384
 O         2.009423        -1.204332        -0.272101
 C         3.334065         0.185163         0.996782
 O         1.968005         0.431829         1.298090
 H        -0.367877        -0.725273         0.829227
 H        -0.482098         0.862172         0.250299
 H        -0.621973        -0.371183        -0.896298
 H         2.044684         1.043373        -2.014097
 H         1.764687         2.200257        -0.503424
 H         4.268024         1.830141        -0.350937
 H         4.264537        -0.688022        -1.996811
 H         5.381247        -0.364088        -0.651933
 H         3.761459        -1.999607         0.509398
 H         4.112811         0.351530         1.708699
