19
Iteration:  2874charge 0 multiplicity 1
 C         0.011766        -0.106882         0.040650
 C         1.412276         0.047731        -0.149260
 C         2.231814         1.133310        -0.921129
 C         3.653454         0.964563        -0.347068
 C         4.245748        -0.365966        -0.902739
 C         3.359476        -1.160404         0.170606
 O         2.000697        -1.177683        -0.307260
 C         3.318460         0.200792         0.966706
 O         1.962021         0.450910         1.286385
 H        -0.306572        -0.952573         0.702014
 H        -0.390012         0.825039         0.520648
 H        -0.463901        -0.283562        -0.948121
 H         2.212936         1.109221        -2.047945
 H         1.797001         2.144483        -0.573892
 H         4.099301         1.968964        -0.289314
 H         3.908291        -0.455088        -1.983508
 H         5.278871        -0.511927        -0.885405
 H         3.565515        -2.223254         0.640803
 H         3.822913         0.278571         1.985835
