19
Iteration:  2436
 C        -0.058221        -0.020379        -0.130694
 C         1.441883         0.038618        -0.037982
 C         2.123530         1.116970        -0.859347
 C         3.617017         0.976982        -0.415771
 C         4.180946        -0.408017        -1.000387
 C         3.497841        -1.104199         0.148299
 O         2.068099        -1.192248        -0.177066
 C         3.289027         0.224478         0.984442
 O         1.992687         0.365834         1.371884
 H        -0.455610        -0.902870         0.303200
 H        -0.681421         0.763475         0.342467
 H        -0.479242         0.056903        -1.163126
 H         2.145809         1.039879        -1.986403
 H         1.939331         2.207464        -0.637148
 H         4.203874         1.934565        -0.486982
 H         3.798658        -0.673202        -2.043197
 H         5.305971        -0.508562        -1.045002
 H         3.878032        -2.052578         0.621195
 H         3.992083         0.290095         1.808618
