19
Iteration:  2556charge 0 multiplicity 1
 C        -0.059238        -0.010124        -0.155441
 C         1.364562         0.011400         0.057848
 C         2.156971         1.191176        -0.845944
 C         3.643697         0.902618        -0.426160
 C         4.193270        -0.374340        -1.035074
 C         3.508603        -1.090907         0.200025
 O         2.058694        -1.237640        -0.254443
 C         3.322155         0.271806         0.942494
 O         1.995491         0.370958         1.403819
 H        -0.602026        -0.467129         0.629677
 H        -0.444610         0.945887        -0.291776
 H        -0.351104        -0.469919        -1.080944
 H         1.823507         1.004393        -1.900279
 H         1.731414         2.174881        -0.504592
 H         4.254364         1.783971        -0.578716
 H         3.800738        -0.841207        -1.970070
 H         5.258190        -0.559285        -0.958378
 H         3.901287        -2.043734         0.637186
 H         3.927763         0.346863         1.866703
