19
Iteration:   624charge 0 multiplicity 1
 C        -0.028540        -0.118389        -0.078849
 C         1.427265         0.067125        -0.016772
 C         2.246164         1.192118        -0.874519
 C         3.624915         0.912826        -0.359433
 C         4.259896        -0.377945        -1.031363
 C         3.374330        -1.086136         0.195228
 O         1.927478        -1.251354        -0.265503
 C         3.346495         0.252456         0.970228
 O         1.999224         0.446052         1.344661
 H        -0.196406        -0.629678         0.758894
 H        -0.693790         0.818860        -0.215655
 H        -0.214343        -0.728544        -0.919591
 H         2.044706         1.024855        -1.931880
 H         1.707552         2.075094        -0.518883
 H         4.278009         1.821367        -0.324140
 H         3.957427        -0.608273        -2.104252
 H         5.334157        -0.512387        -0.887976
 H         3.637908        -2.111151         0.560075
 H         4.031928         0.460146         1.751158
