19
Iteration:  4112charge 0 multiplicity 1
 C        -0.087230         0.091134         0.040767
 C         1.478552         0.057543         0.028887
 C         2.157789         1.098143        -0.830832
 C         3.588202         0.974048        -0.367497
 C         4.290203        -0.368810        -0.947757
 C         3.391488        -1.090019         0.094490
 O         2.054543        -1.291295        -0.340230
 C         3.333543         0.247228         0.935594
 O         1.932856         0.285899         1.292549
 H        -0.467062        -0.671050         0.722463
 H        -0.429890         1.137164        -0.035453
 H        -0.399404        -0.268503        -1.001867
 H         1.999327         1.080018        -1.989757
 H         1.781360         2.242695        -0.518116
 H         4.188851         1.906039        -0.605660
 H         4.379489        -0.680184        -2.029905
 H         5.259891        -0.354401        -0.515422
 H         3.808847        -2.024462         0.577920
 H         3.969796         0.426641         1.799836
