19
Iteration:  2802
 C        -0.077593         0.043308        -0.046650
 C         1.503651         0.072619        -0.006762
 C         2.172688         1.115559        -0.937776
 C         3.600888         0.995061        -0.367633
 C         4.266355        -0.380234        -0.920545
 C         3.423541        -1.149196         0.122536
 O         2.043309        -1.259217        -0.253051
 C         3.352131         0.254494         1.023682
 O         1.926697         0.335751         1.259185
 H        -0.648426        -0.606814         0.593510
 H        -0.430635         0.980757         0.477699
 H        -0.636845        -0.145830        -0.971033
 H         1.888546         0.835791        -1.946597
 H         1.697196         2.046810        -0.678865
 H         4.279984         1.858814        -0.560329
 H         4.099256        -0.627083        -1.958031
 H         5.415618        -0.595621        -0.809521
 H         3.768710        -2.078306         0.506535
 H         3.871982         0.511945         1.930757
