19
Iteration:  2021charge 0 multiplicity 1
 C        -0.060593        -0.014099        -0.130511
 C         1.458290         0.011775        -0.020052
 C         2.149302         1.209336        -0.844429
 C         3.610761         0.951562        -0.448044
 C         4.175431        -0.444671        -0.946133
 C         3.455437        -1.137689         0.108759
 O         2.059256        -1.242866        -0.166543
 C         3.347753         0.269559         1.009088
 O         1.965162         0.392535         1.303634
 H        -0.574497        -0.969787         0.321284
 H        -0.530812         0.856351         0.317056
 H        -0.420410        -0.107610        -1.136780
 H         2.112866         1.228439        -1.959344
 H         1.833858         2.170871        -0.546047
 H         4.325649         1.813560        -0.330782
 H         3.773693        -0.679617        -1.883111
 H         5.279967        -0.389646        -0.960204
 H         3.880690        -2.083573         0.428350
 H         4.015200         0.441769         1.901469
