19
Iteration:   898
 C        -0.045312         0.062777        -0.103268
 C         1.544964        -0.040369        -0.064942
 C         2.159026         1.012644        -0.856320
 C         3.587666         1.007379        -0.448311
 C         4.123837        -0.316472        -0.909780
 C         3.473851        -1.081913         0.225398
 O         1.986745        -1.323664        -0.234126
 C         3.351405         0.256308         1.030461
 O         2.007761         0.445749         1.255535
 H        -0.719075        -0.757888         0.395363
 H        -0.268261         0.973710         0.415291
 H        -0.393096         0.068647        -1.193204
 H         2.158358         0.769905        -2.003238
 H         1.664652         1.891256        -0.640406
 H         4.179308         1.965547        -0.522933
 H         3.866276        -0.433603        -1.951251
 H         5.229285        -0.581046        -0.799359
 H         3.817135        -2.073052         0.551770
 H         3.932742         0.244732         2.013553
