19
Iteration:  2927charge 0 multiplicity 1
 C        -0.044061         0.071333        -0.060055
 C         1.387611         0.035896        -0.047743
 C         2.088013         1.027519        -0.918015
 C         3.588889         0.949793        -0.371312
 C         4.306136        -0.347615        -0.879811
 C         3.459376        -1.055146         0.082717
 O         1.980171        -1.174472        -0.356365
 C         3.384373         0.164329         0.987029
 O         2.014405         0.327977         1.392411
 H        -0.355561        -0.293233         0.929557
 H        -0.430007         1.087428         0.016409
 H        -0.436855        -0.403976        -0.956736
 H         1.946774         0.661114        -1.925235
 H         1.755233         1.971521        -0.907699
 H         4.027877         1.947727        -0.283293
 H         4.366728        -0.667514        -1.966290
 H         5.256162        -0.351154        -0.430753
 H         3.724823        -2.053364         0.509092
 H         3.910101         0.317299         2.006575
