19
Iteration:  3730charge 0 multiplicity 1
 C        -0.120733        -0.059860         0.099516
 C         1.501710         0.126646        -0.054999
 C         2.173874         1.103634        -0.921172
 C         3.635837         0.910251        -0.407667
 C         4.269602        -0.367909        -0.804709
 C         3.419756        -1.069954         0.135250
 O         2.084989        -1.192940        -0.379725
 C         3.246373         0.195982         0.956370
 O         1.943250         0.353186         1.241239
 H        -0.244166        -0.601000         1.046029
 H        -0.417735         0.971437         0.277414
 H        -0.685760        -0.359219        -0.716964
 H         1.894788         1.005753        -1.993520
 H         1.804513         2.159553        -0.771473
 H         4.215071         1.825195        -0.562689
 H         4.177238        -0.695473        -1.876669
 H         5.325350        -0.369776        -0.516757
 H         3.713123        -2.044913         0.573261
 H         3.971828         0.304521         1.803653
