19
Iteration:    89
 C        -0.039012         0.069025        -0.199343
 C         1.476068        -0.006616        -0.003509
 C         2.130038         0.965547        -0.959885
 C         3.526414         0.996412        -0.430533
 C         4.140172        -0.338252        -0.975980
 C         3.451152        -1.097438         0.174665
 O         2.024630        -1.218544        -0.096246
 C         3.399623         0.280078         0.933688
 O         2.038070         0.349031         1.414050
 H        -0.505364        -0.616332         0.594063
 H        -0.314293         1.014391         0.007652
 H        -0.385075        -0.221845        -1.234536
 H         2.044890         0.747403        -2.002822
 H         1.683173         1.941778        -0.775275
 H         4.076654         1.889668        -0.390402
 H         3.920066        -0.596364        -2.024883
 H         5.193106        -0.430026        -0.939792
 H         3.809575        -1.970513         0.605894
 H         4.184564         0.553207         1.702461
