19
Iteration:  1646
 C        -0.058872         0.092028         0.035679
 C         1.421022         0.136300         0.056754
 C         2.149074         1.021878        -0.916257
 C         3.551331         0.886121        -0.402436
 C         4.349760        -0.307190        -0.898515
 C         3.431073        -1.160097         0.123013
 O         2.041557        -1.265840        -0.359648
 C         3.303877         0.199645         0.924228
 O         1.945696         0.405533         1.315966
 H        -0.446750        -0.841783         0.576622
 H        -0.345101         0.946411         0.611185
 H        -0.306102        -0.022751        -0.992676
 H         1.991646         0.795188        -2.014534
 H         1.760272         2.125439        -0.840087
 H         3.961846         1.950638        -0.370195
 H         4.420307        -0.813746        -1.959603
 H         5.381301        -0.363449        -0.450005
 H         3.652133        -2.106170         0.586814
 H         4.086886         0.496320         1.564660
