19
Iteration:  2682charge 0 multiplicity 1
 C        -0.050735        -0.004810        -0.102499
 C         1.409247         0.046962         0.061859
 C         2.208469         1.092203        -0.911507
 C         3.675584         1.028529        -0.400052
 C         4.211334        -0.376123        -0.947551
 C         3.416947        -1.144405         0.072303
 O         1.955226        -1.331522        -0.179576
 C         3.353294         0.255507         0.967771
 O         1.980332         0.434534         1.304903
 H        -0.556620        -0.872281         0.372609
 H        -0.530545         0.966573         0.381852
 H        -0.208494        -0.298956        -1.196136
 H         2.179968         0.875090        -1.999899
 H         1.678223         1.960205        -0.615968
 H         4.263277         2.012011        -0.313543
 H         3.985536        -0.285346        -1.991272
 H         5.355196        -0.382645        -0.942264
 H         3.856435        -1.880176         0.707501
 H         4.038011         0.306177         1.796956
