19
Iteration:  2683charge 0 multiplicity 1
 C        -0.048001         0.001938        -0.104801
 C         1.413116         0.046461         0.052177
 C         2.214720         1.098223        -0.915890
 C         3.670694         1.022460        -0.395673
 C         4.209550        -0.364047        -0.949741
 C         3.423142        -1.144612         0.076956
 O         1.956394        -1.334224        -0.171953
 C         3.346710         0.245751         0.962412
 O         1.979914         0.434635         1.310272
 H        -0.562736        -0.864141         0.381730
 H        -0.516778         0.977481         0.393975
 H        -0.178024        -0.326100        -1.206017
 H         2.130313         0.855953        -2.013559
 H         1.652395         1.956591        -0.615451
 H         4.271653         2.022526        -0.326360
 H         3.954315        -0.297009        -1.975845
 H         5.352178        -0.390883        -0.965539
 H         3.854319        -1.894797         0.690052
 H         4.022419         0.303282         1.807996
