19
Iteration:  1208charge 0 multiplicity 1
 C        -0.063319        -0.095921        -0.053222
 C         1.441274         0.161576         0.062365
 C         2.142380         1.232732        -0.914946
 C         3.644142         0.911272        -0.413263
 C         4.249105        -0.446281        -0.929107
 C         3.428216        -1.141629         0.111612
 O         2.017604        -1.151708        -0.306556
 C         3.357899         0.186286         1.009490
 O         1.981899         0.377506         1.349989
 H        -0.420787        -0.810902         0.649154
 H        -0.850281         0.743340        -0.175211
 H        -0.330345        -0.551517        -1.053376
 H         2.168052         1.020937        -1.908619
 H         1.579399         2.150855        -0.730621
 H         4.261915         1.887445        -0.462403
 H         4.178760        -0.568487        -2.036815
 H         5.257104        -0.665655        -0.742726
 H         3.598013        -2.090315         0.397812
 H         3.895394         0.406304         1.982468
