19
Iteration:   522
 C         0.021552        -0.034306        -0.094916
 C         1.453251         0.047896         0.027875
 C         2.132979         1.082877        -0.853634
 C         3.638108         1.004362        -0.427353
 C         4.212816        -0.357893        -0.965408
 C         3.367495        -1.049426         0.136913
 O         1.957495        -1.200133        -0.236669
 C         3.361651         0.184003         0.925375
 O         2.014529         0.380637         1.334812
 H        -0.355891        -1.034897         0.348922
 H        -0.492216         0.629222         0.497870
 H        -0.115215         0.022287        -1.188307
 H         1.977103         0.845818        -1.903077
 H         1.627263         2.042301        -0.729446
 H         4.208400         1.887218        -0.502085
 H         4.170083        -0.684481        -2.023403
 H         5.286037        -0.501113        -0.639620
 H         3.602666        -1.999339         0.796053
 H         4.006312         0.206071         1.872820
