19
Iteration:  3727
 C        -0.099743        -0.070630         0.100226
 C         1.493655         0.126574        -0.043280
 C         2.150229         1.133270        -0.952628
 C         3.648290         0.897918        -0.425558
 C         4.280209        -0.381414        -0.800733
 C         3.416664        -1.047180         0.128142
 O         2.077441        -1.186411        -0.378385
 C         3.249049         0.181915         0.968455
 O         1.930692         0.353137         1.268435
 H        -0.300316        -0.578001         1.055812
 H        -0.523312         0.995478         0.345944
 H        -0.738577        -0.472685        -0.790492
 H         2.019627         0.992549        -2.024506
 H         1.947432         2.126498        -0.795591
 H         4.201233         1.821345        -0.473351
 H         4.221825        -0.742685        -1.914995
 H         5.374919        -0.333085        -0.559953
 H         3.735770        -2.028816         0.535747
 H         3.992610         0.292801         1.763922
