19
Iteration:  2974charge 0 multiplicity 1
 C        -0.025001        -0.076883        -0.144994
 C         1.462555         0.048604        -0.075614
 C         2.270576         1.257623        -0.780129
 C         3.639763         0.996387        -0.384631
 C         4.136046        -0.403033        -1.003121
 C         3.405275        -1.132588         0.123086
 O         2.037791        -1.243048        -0.203833
 C         3.312860         0.197645         1.052182
 O         1.942841         0.380751         1.295909
 H        -0.334042        -0.670053         0.704518
 H        -0.602939         0.885161         0.144329
 H        -0.317160        -0.424596        -1.146478
 H         2.141500         1.231489        -1.893402
 H         1.691423         2.157216        -0.467654
 H         4.268523         1.917880        -0.562560
 H         3.728544        -0.684057        -1.957994
 H         5.205802        -0.513452        -0.963622
 H         3.788756        -2.196494         0.507205
 H         4.038019         0.267360         1.809766
