19
Iteration:   697
 C        -0.030715         0.023993         0.077470
 C         1.417818         0.131580         0.002170
 C         2.160539         1.065002        -0.990343
 C         3.558457         0.954163        -0.475542
 C         4.326586        -0.302887        -0.847373
 C         3.375993        -1.182226         0.132476
 O         1.969947        -1.225122        -0.292005
 C         3.352709         0.182572         1.024884
 O         1.994516         0.354659         1.224752
 H        -0.167739        -1.008549         0.536550
 H        -0.548053         0.974175         0.446866
 H        -0.331026         0.078999        -0.935882
 H         2.075378         0.752529        -1.964714
 H         1.764699         2.085994        -0.870851
 H         4.084531         1.815603        -0.401028
 H         4.352840        -0.735034        -1.863675
 H         5.312719        -0.056626        -0.468261
 H         3.888610        -2.020304         0.642193
 H         3.917963         0.398686         1.949928
