19
Iteration:  1881charge 0 multiplicity 1
 C        -0.074612         0.028134        -0.155836
 C         1.440523         0.051318         0.028339
 C         2.216681         1.006601        -0.884972
 C         3.629284         0.968436        -0.421784
 C         4.118240        -0.281611        -0.949676
 C         3.450893        -1.098852         0.138348
 O         2.002068        -1.339270        -0.167229
 C         3.386010         0.233615         0.975297
 O         2.004629         0.440574         1.316995
 H        -0.474639        -0.912645         0.328755
 H        -0.488574         0.892740         0.263303
 H        -0.198041        -0.062341        -1.196389
 H         2.144498         0.928142        -2.066399
 H         1.746536         2.018853        -0.559007
 H         3.968443         1.909390        -0.549566
 H         3.811758        -0.491238        -2.000388
 H         5.211617        -0.330064        -0.658721
 H         3.848605        -2.041377         0.516836
 H         4.042201         0.399766         1.859904
