19
Iteration:  3342
 C        -0.071743        -0.086478        -0.002022
 C         1.365804         0.133434         0.045485
 C         2.193771         1.173654        -0.874717
 C         3.640868         0.978578        -0.321743
 C         4.304776        -0.344910        -0.920847
 C         3.352534        -1.183312         0.137886
 O         2.027451        -1.239343        -0.373605
 C         3.350785         0.157979         0.931739
 O         1.986789         0.453920         1.257184
 H        -0.400922        -0.664877         0.896201
 H        -0.617202         0.914291         0.077375
 H        -0.264391        -0.781793        -0.835366
 H         2.127541         0.724864        -1.919644
 H         1.834885         2.276398        -0.802719
 H         4.157341         1.945071        -0.129943
 H         4.088079        -0.622338        -1.992135
 H         5.366535        -0.460959        -0.669693
 H         3.508627        -2.123666         0.610028
 H         4.052353         0.243978         1.759060
