19
Iteration:  2955charge 0 multiplicity 1
 C        -0.025674         0.034653        -0.090129
 C         1.424801         0.073432         0.012296
 C         2.198223         1.151273        -0.894934
 C         3.705880         0.950872        -0.300139
 C         4.183711        -0.297582        -1.004238
 C         3.387715        -1.098175         0.081632
 O         2.014439        -1.360117        -0.185798
 C         3.379436         0.185376         0.953418
 O         1.926209         0.355325         1.265437
 H        -0.361985        -0.585143         0.788451
 H        -0.543053         1.020089        -0.154472
 H        -0.212665        -0.499348        -1.045172
 H         1.983125         1.103942        -2.006053
 H         1.861972         2.290885        -0.539894
 H         4.324004         1.802665         0.004122
 H         3.766402        -0.351662        -1.972105
 H         5.342778        -0.375259        -0.971788
 H         3.746947        -1.929600         0.668600
 H         3.715727         0.420018         1.943887
