19
Iteration:  2469
 C        -0.087307         0.082190         0.042254
 C         1.452743        -0.016079        -0.018064
 C         2.125028         1.093741        -0.958543
 C         3.588228         0.959976        -0.396782
 C         4.279963        -0.314394        -0.905665
 C         3.416905        -1.150108         0.130354
 O         2.054951        -1.286921        -0.297200
 C         3.245868         0.264721         0.929247
 O         1.991158         0.361853         1.326737
 H        -0.381000        -0.789681         0.582526
 H        -0.136686         1.071116         0.526406
 H        -0.463743         0.032956        -1.012006
 H         2.237713         0.787306        -2.046399
 H         1.772090         2.154956        -0.655006
 H         4.038325         1.959873        -0.550537
 H         4.378233        -0.620369        -2.012280
 H         5.319104        -0.346495        -0.450493
 H         3.908443        -2.011070         0.676185
 H         4.049216         0.343441         1.679149
