19
Iteration:  2637
 C        -0.028546        -0.042835         0.127191
 C         1.431939         0.133278         0.006618
 C         2.136686         1.209413        -1.002630
 C         3.564660         0.915233        -0.418581
 C         4.337559        -0.396558        -0.901284
 C         3.346379        -1.147409         0.252379
 O         2.112820        -1.221849        -0.416941
 C         3.335482         0.229040         0.942488
 O         1.910166         0.391243         1.267270
 H        -0.370667        -1.032137         0.529102
 H        -0.388533         0.771093         0.855911
 H        -0.424607        -0.114667        -0.898678
 H         1.988921         0.797107        -1.980374
 H         1.823804         2.216123        -0.831715
 H         4.134825         1.844866        -0.466699
 H         4.243359        -1.004571        -1.823075
 H         5.394627        -0.460401        -0.518295
 H         3.548211        -2.148613         0.692021
 H         3.914648         0.450747         1.838821
