19
Iteration:  2630
 C        -0.044730        -0.030708         0.147125
 C         1.358644         0.098821        -0.037257
 C         2.188635         1.159014        -0.933746
 C         3.632660         0.903794        -0.424764
 C         4.288455        -0.442320        -0.836633
 C         3.377278        -1.111377         0.171566
 O         2.106537        -1.219166        -0.419568
 C         3.286016         0.265977         0.964999
 O         1.947225         0.385851         1.226496
 H        -0.257078        -1.015275         0.579594
 H        -0.460160         0.841995         0.743568
 H        -0.630817        -0.033546        -0.827924
 H         1.972391         0.698207        -1.955955
 H         1.632492         2.114567        -0.750143
 H         4.249228         1.880889        -0.311098
 H         4.175865        -0.727720        -1.865972
 H         5.353061        -0.356943        -0.559521
 H         3.736493        -1.908471         0.810126
 H         4.047874         0.547629         1.685753
