19
Iteration:  1266charge 0 multiplicity 1
 C        -0.132069         0.109830         0.018106
 C         1.475120         0.073864        -0.025431
 C         2.177673         1.046559        -0.957490
 C         3.599060         0.985463        -0.400177
 C         4.289236        -0.308088        -0.899455
 C         3.427383        -1.096491         0.112303
 O         2.033731        -1.258122        -0.291006
 C         3.322598         0.147683         0.958803
 O         1.967482         0.291488         1.306153
 H        -0.630328        -0.667542         0.708087
 H        -0.232754         0.949272         0.610876
 H        -0.645783         0.268398        -0.928263
 H         2.238625         0.728707        -1.989868
 H         1.744002         1.999734        -0.894172
 H         4.129688         1.928619        -0.393602
 H         4.231880        -0.327203        -1.978858
 H         5.294699        -0.347090        -0.460173
 H         3.874775        -2.016413         0.554418
 H         3.790208         0.263317         1.929865
