19
Iteration:  4778charge 0 multiplicity 1
 C        -0.001881        -0.022966        -0.028507
 C         1.462111         0.023303         0.030592
 C         2.185217         1.175289        -0.915930
 C         3.690915         0.921163        -0.346049
 C         4.230012        -0.352285        -1.005619
 C         3.395780        -1.112469         0.109853
 O         2.039094        -1.243322        -0.276495
 C         3.287752         0.209704         0.954398
 O         1.879930         0.387192         1.333870
 H        -0.294964        -0.861679         0.682421
 H        -0.552716         0.878880         0.249488
 H        -0.402066        -0.173515        -0.984835
 H         2.330719         1.238539        -2.004841
 H         1.790799         2.129930        -0.554720
 H         4.194132         1.890463        -0.378748
 H         3.909361        -0.541624        -2.002626
 H         5.414897        -0.387194        -0.805850
 H         3.718528        -2.053766         0.554304
 H         3.907709         0.300835         1.827837
