19
Iteration:   188
 C        -0.121364         0.021511         0.051650
 C         1.461204        -0.016619        -0.005089
 C         2.111327         1.030226        -0.990733
 C         3.625090         1.004062        -0.475168
 C         4.382388        -0.310918        -0.871099
 C         3.459515        -1.095457         0.126957
 O         1.933480        -1.271427        -0.271588
 C         3.345093         0.198731         0.981097
 O         1.984129         0.449386         1.292734
 H        -0.558879        -0.628792         0.823224
 H        -0.441227         1.017043         0.346329
 H        -0.532861        -0.255602        -0.917145
 H         1.982570         0.730704        -2.012724
 H         1.678957         1.985220        -0.699516
 H         4.142313         1.970893        -0.610680
 H         4.466915        -0.672782        -1.916037
 H         5.312479        -0.347978        -0.350080
 H         3.699631        -2.035362         0.447048
 H         4.129904         0.237993         1.822128
