19
Iteration:  1946charge 0 multiplicity 1
 C         0.008862        -0.088392         0.154539
 C         1.398827         0.046210        -0.050816
 C         2.154215         1.082343        -0.951386
 C         3.663192         1.033176        -0.373215
 C         4.334773        -0.387584        -0.861303
 C         3.391197        -1.119715         0.171505
 O         1.986653        -1.198801        -0.403649
 C         3.306787         0.184323         0.934284
 O         1.899373         0.441059         1.235101
 H        -0.317381        -0.420588         1.170645
 H        -0.394387         0.859725         0.067406
 H        -0.497709        -0.501531        -0.650617
 H         2.143953         0.950286        -2.095075
 H         1.841236         2.116918        -0.614039
 H         4.312556         1.799399        -0.386022
 H         4.103440        -0.661926        -1.899856
 H         5.413075        -0.562168        -0.519262
 H         3.898442        -1.972917         0.577236
 H         3.942243         0.340816         1.838583
