19
Iteration:  3228
 C        -0.006857        -0.076291        -0.051666
 C         1.453582         0.072070        -0.081595
 C         2.166936         1.211948        -0.804660
 C         3.706488         0.946714        -0.332161
 C         4.176508        -0.389304        -0.984141
 C         3.439712        -1.132289         0.090759
 O         2.008745        -1.235153        -0.264117
 C         3.296960         0.188322         1.021691
 O         1.907365         0.466811         1.273774
 H        -0.277948        -1.129613         0.368316
 H        -0.439727         0.593058         0.721005
 H        -0.418411        -0.068172        -1.104302
 H         2.176151         1.069401        -1.856393
 H         1.962053         2.197164        -0.546779
 H         4.534968         1.680135        -0.285586
 H         3.760424        -0.749581        -1.965371
 H         5.330173        -0.362596        -1.166975
 H         3.754433        -2.187526         0.433081
 H         3.878057         0.230221         2.033969
