19
Iteration:  3169
 C        -0.065936         0.108183         0.015593
 C         1.416403         0.037105        -0.047182
 C         2.107872         1.038956        -0.900381
 C         3.605945         0.890575        -0.311203
 C         4.395447        -0.257848        -0.867643
 C         3.342103        -1.132007         0.026550
 O         2.036558        -1.223412        -0.312806
 C         3.337320         0.161287         0.928672
 O         1.986246         0.320367         1.320599
 H        -0.424647        -0.532467         0.785728
 H        -0.245676         1.178258         0.149142
 H        -0.652496        -0.024927        -0.868580
 H         1.973629         0.749597        -1.993714
 H         1.843370         2.150091        -0.853709
 H         3.957554         1.951347        -0.298320
 H         4.348277        -0.426429        -2.027005
 H         5.371726        -0.051934        -0.447936
 H         3.696444        -2.083453         0.538432
 H         3.820612         0.201739         1.841226
