19
Iteration:    92
 C        -0.066315         0.068449        -0.211141
 C         1.470737        -0.004607        -0.001364
 C         2.115684         0.976734        -0.957124
 C         3.526979         0.978642        -0.413465
 C         4.163990        -0.339140        -1.012165
 C         3.442262        -1.115489         0.174519
 O         2.039393        -1.235374        -0.102120
 C         3.379917         0.270514         0.944142
 O         2.056452         0.385440         1.432554
 H        -0.566091        -0.628357         0.487022
 H        -0.431415         1.093348         0.031659
 H        -0.346917        -0.210804        -1.229310
 H         2.046754         0.664296        -2.006198
 H         1.690832         1.960135        -0.744251
 H         4.138510         1.899517        -0.368200
 H         3.854611        -0.591987        -2.079368
 H         5.269089        -0.323308        -0.924475
 H         3.966219        -2.034491         0.677119
 H         4.169700         0.573230         1.684971
