19
Iteration:  2781charge 0 multiplicity 1
 C        -0.053100        -0.033295         0.085118
 C         1.452348         0.080875        -0.079168
 C         2.243889         1.063135        -0.959730
 C         3.646484         0.953472        -0.313512
 C         4.257358        -0.337549        -0.945788
 C         3.372490        -1.090597         0.166525
 O         2.009308        -1.213594        -0.360716
 C         3.238952         0.176514         0.975636
 O         1.932494         0.438314         1.295614
 H        -0.312216        -0.710832         0.926446
 H        -0.589634         0.880499         0.500036
 H        -0.450776        -0.602912        -0.799167
 H         2.386726         0.837362        -1.994550
 H         2.036825         2.075798        -0.911182
 H         4.294734         1.890205        -0.397939
 H         4.230018        -0.624605        -1.963189
 H         5.404033        -0.467579        -0.737987
 H         3.674957        -1.937447         0.701290
 H         4.070309         0.144789         1.649600
