19
Iteration:  1857
 C        -0.023539         0.024254        -0.103129
 C         1.454883         0.070043        -0.031684
 C         2.111208         1.085035        -0.917653
 C         3.634776         0.996340        -0.373053
 C         4.206903        -0.444525        -1.015048
 C         3.500304        -1.073415         0.148199
 O         2.049652        -1.297052        -0.133461
 C         3.273128         0.238005         0.968857
 O         1.935140         0.367167         1.321845
 H        -0.487795        -0.792908         0.412121
 H        -0.204438         0.905027         0.471701
 H        -0.311096         0.141918        -1.150406
 H         2.372666         1.085924        -2.059623
 H         1.609332         2.074581        -0.763462
 H         4.113793         1.939343        -0.402120
 H         3.792310        -0.449023        -1.994393
 H         5.371780        -0.506919        -0.940614
 H         3.853215        -1.946630         0.619907
 H         3.961856         0.496853         1.766479
