19
Iteration:  4628
 C        -0.007912        -0.045054        -0.096596
 C         1.475576         0.022043        -0.019654
 C         2.180918         1.166600        -0.801718
 C         3.623149         0.929784        -0.405246
 C         4.181561        -0.344092        -0.955916
 C         3.419968        -1.121083         0.124154
 O         2.058511        -1.184102        -0.255080
 C         3.323165         0.197068         0.989182
 O         1.953182         0.377898         1.303609
 H        -0.530913        -0.715840         0.721582
 H        -0.387913         1.024872         0.057116
 H        -0.333510        -0.460461        -1.087910
 H         1.891622         1.093242        -1.839132
 H         1.676459         2.167597        -0.498144
 H         4.280207         1.820766        -0.491376
 H         3.983469        -0.573823        -2.048358
 H         5.190557        -0.484943        -0.815154
 H         3.505831        -2.184513         0.434654
 H         3.906904         0.376080         1.866906
