19
Iteration:   236
 C        -0.125182        -0.093691        -0.174485
 C         1.468226        -0.000086        -0.020305
 C         2.143354         1.081816        -0.796862
 C         3.707536         0.945999        -0.445169
 C         4.087388        -0.393871        -0.972863
 C         3.427940        -1.057602         0.142621
 O         2.126362        -1.221314        -0.226580
 C         3.330871         0.199995         1.018605
 O         2.036320         0.530197         1.334692
 H        -0.522995        -0.579637         0.706417
 H        -0.455403         1.019354        -0.038653
 H        -0.428928        -0.605899        -1.102111
 H         2.010380         0.922977        -1.909338
 H         1.709733         1.964096        -0.289789
 H         4.125094         1.977967        -0.674137
 H         3.466620        -0.738520        -1.824887
 H         5.219346        -0.448405        -1.163695
 H         3.671000        -2.109596         0.730521
 H         3.853548         0.296042         1.905124
