19
Iteration:  2873
 C         0.017411        -0.106203         0.034060
 C         1.395129         0.053478        -0.136813
 C         2.237221         1.138891        -0.924599
 C         3.658295         0.968936        -0.346645
 C         4.233257        -0.362029        -0.901608
 C         3.367143        -1.166222         0.169358
 O         2.000830        -1.181480        -0.304741
 C         3.316197         0.198426         0.967530
 O         1.963351         0.450496         1.284763
 H        -0.298642        -0.980803         0.670060
 H        -0.356450         0.815244         0.494237
 H        -0.463455        -0.285501        -0.946558
 H         2.206383         1.094702        -2.026997
 H         1.830566         2.103872        -0.601589
 H         4.091374         1.968345        -0.283983
 H         3.907821        -0.463741        -1.984710
 H         5.248795        -0.507346        -0.892915
 H         3.569430        -2.200748         0.649916
 H         3.864711         0.278135         1.987531
