19
Iteration:  3361charge 0 multiplicity 1
 C        -0.112886        -0.098421        -0.127876
 C         1.443049         0.114698        -0.004692
 C         2.111003         1.150463        -0.866112
 C         3.649445         0.923805        -0.460885
 C         4.231747        -0.437066        -0.926675
 C         3.419390        -1.081216         0.123562
 O         2.006594        -1.107342        -0.295910
 C         3.368354         0.200462         1.021015
 O         2.025585         0.363934         1.405337
 H        -0.467242        -0.859718         0.557954
 H        -0.720205         0.884235        -0.110968
 H        -0.259486        -0.642005        -1.116822
 H         2.062080         0.987346        -1.884118
 H         1.925451         2.091086        -0.501321
 H         4.310760         1.790590        -0.531270
 H         3.989130        -0.600574        -1.952140
 H         5.339551        -0.442791        -0.559977
 H         3.687784        -2.064454         0.490004
 H         4.018367         0.310267         1.846255
