19
Iteration:  3971
 C        -0.027657        -0.022828         0.015066
 C         1.370040         0.073961         0.020430
 C         2.216558         1.121739        -0.890820
 C         3.573837         0.986614        -0.353919
 C         4.310229        -0.313689        -0.965686
 C         3.367600        -1.113954         0.055542
 O         2.020061        -1.284736        -0.294120
 C         3.306817         0.143435         0.954575
 O         2.019476         0.448467         1.333099
 H        -0.383671        -1.015985         0.463114
 H        -0.630315         0.879363         0.235880
 H        -0.419131        -0.066975        -1.049147
 H         2.059343         0.881060        -1.948432
 H         1.753024         2.016966        -0.808433
 H         4.250212         1.908853        -0.196856
 H         4.173432        -0.640227        -2.056196
 H         5.301511        -0.374844        -0.511237
 H         3.610614        -2.126395         0.487656
 H         3.967097         0.244149         1.823699
