19
Iteration:  4878charge 0 multiplicity 1
 C        -0.048417        -0.018937        -0.076980
 C         1.504569         0.090889        -0.002383
 C         2.200109         1.166313        -0.799079
 C         3.702035         0.985122        -0.375596
 C         4.169883        -0.409804        -1.009716
 C         3.429248        -1.125407         0.110386
 O         2.069154        -1.230683        -0.277491
 C         3.327558         0.194364         1.035464
 O         1.845455         0.386300         1.304367
 H        -0.459287        -0.781587         0.617669
 H        -0.770819         0.758969         0.183879
 H        -0.287943        -0.379205        -1.098153
 H         1.976488         0.888044        -1.818173
 H         1.827341         2.191990        -0.502182
 H         4.397636         1.810266        -0.610886
 H         3.860360        -0.484549        -2.044066
 H         5.340471        -0.430334        -1.018664
 H         3.774565        -2.106963         0.475191
 H         4.009640         0.281610         1.888617
