19
Iteration:  1624
 C        -0.100862         0.062616        -0.105674
 C         1.472679         0.044613         0.031513
 C         2.127381         1.060576        -0.932383
 C         3.661376         0.978811        -0.410089
 C         4.242235        -0.297574        -0.940708
 C         3.405808        -1.105932         0.094044
 O         2.004573        -1.224226        -0.214189
 C         3.380551         0.218904         1.022753
 O         1.990400         0.310811         1.335549
 H        -0.677895        -0.631756         0.601133
 H        -0.379024         1.029583         0.273529
 H        -0.490241        -0.136821        -1.069375
 H         2.164033         0.744791        -1.995570
 H         1.540968         2.070691        -0.902371
 H         4.301914         1.911471        -0.523244
 H         4.058333        -0.759878        -1.983761
 H         5.310431        -0.528630        -0.737093
 H         3.645873        -2.052822         0.537363
 H         4.060206         0.250350         1.834231
