19
Iteration:   416charge 0 multiplicity 1
 C        -0.122278         0.048471         0.058098
 C         1.399273         0.036894        -0.012028
 C         2.160429         1.070710        -0.874982
 C         3.626706         0.911773        -0.417564
 C         4.311134        -0.325882        -0.915322
 C         3.468336        -1.160823         0.071999
 O         2.081028        -1.266582        -0.357692
 C         3.358408         0.226775         1.025605
 O         1.900564         0.414530         1.288353
 H        -0.506928        -0.410294         0.924644
 H        -0.368914         1.158382        -0.027910
 H        -0.604682        -0.409261        -0.772561
 H         1.983056         0.949244        -1.930878
 H         1.700865         2.013839        -0.511884
 H         4.219513         1.823315        -0.344177
 H         4.100428        -0.427260        -1.996159
 H         5.341098        -0.195459        -0.735156
 H         3.782484        -2.130544         0.360450
 H         3.947061         0.387197         1.994117
