19
Iteration:  4932charge 0 multiplicity 1
 C        -0.104165         0.061840        -0.007376
 C         1.457279         0.093357         0.001758
 C         2.219880         1.062285        -0.900643
 C         3.536576         0.886508        -0.344699
 C         4.300212        -0.345485        -0.902091
 C         3.417026        -1.079398         0.029864
 O         2.055054        -1.233972        -0.322681
 C         3.292900         0.230837         1.012842
 O         1.962770         0.335015         1.333520
 H        -0.582287        -0.834099         0.541961
 H        -0.568630         1.002075         0.430375
 H        -0.652652        -0.219860        -0.953185
 H         2.204188         0.784880        -1.968810
 H         1.985596         2.191079        -0.848849
 H         4.197084         1.803833        -0.474598
 H         4.219522        -0.398669        -1.935250
 H         5.420509        -0.299589        -0.723052
 H         3.718165        -2.082328         0.395489
 H         4.058069         0.340622         1.773642
