19
Iteration:  1720
 C        -0.066520        -0.017342        -0.184932
 C         1.422664         0.042290         0.033761
 C         2.175910         1.073598        -0.871229
 C         3.585869         0.921490        -0.406956
 C         4.196745        -0.380406        -0.930710
 C         3.400110        -1.093828         0.164061
 O         1.962569        -1.207488        -0.219172
 C         3.429027         0.237420         0.972135
 O         2.058505         0.423082         1.336428
 H        -0.474601        -0.865759         0.528147
 H        -0.477338         0.940571         0.072491
 H        -0.278330        -0.441734        -1.167869
 H         2.004640         0.949849        -1.860394
 H         1.739375         1.999676        -0.602922
 H         4.150478         1.976276        -0.464586
 H         4.002277        -0.516925        -2.038632
 H         5.239095        -0.229986        -0.919145
 H         3.594918        -2.159688         0.543710
 H         4.160341         0.327381         1.810489
