19
Iteration:  4723
 C        -0.045289         0.050214        -0.077466
 C         1.482243         0.071931         0.010552
 C         2.105777         1.109185        -0.824876
 C         3.646696         0.908893        -0.432053
 C         4.228641        -0.347610        -0.964899
 C         3.439078        -1.083343         0.121540
 O         2.018219        -1.204596        -0.284424
 C         3.298936         0.173488         0.996895
 O         1.964566         0.340483         1.351580
 H        -0.152096        -0.909936         0.468104
 H        -0.521736         0.990207         0.219731
 H        -0.355769        -0.213796        -1.063774
 H         2.060339         0.956480        -1.898376
 H         1.746021         2.121086        -0.749774
 H         4.096738         1.907077        -0.397957
 H         4.063362        -0.607433        -1.989938
 H         5.481473        -0.538093        -0.880301
 H         3.812216        -2.050775         0.478869
 H         3.891769         0.403984         1.871722
