19
Iteration:  3728
 C        -0.106714        -0.069388         0.100079
 C         1.499893         0.128602        -0.046363
 C         2.156004         1.125111        -0.942674
 C         3.646107         0.900174        -0.420072
 C         4.274997        -0.377103        -0.798348
 C         3.418434        -1.051080         0.129089
 O         2.079977        -1.188566        -0.378666
 C         3.245187         0.185275         0.963905
 O         1.934845         0.352648         1.259747
 H        -0.283634        -0.580685         1.056746
 H        -0.494424         0.998249         0.328764
 H        -0.730871        -0.437603        -0.773037
 H         1.979648         1.003381        -2.014436
 H         1.911249         2.118781        -0.797206
 H         4.201206         1.817023        -0.503060
 H         4.207148        -0.733788        -1.919067
 H         5.363646        -0.341116        -0.547870
 H         3.731049        -2.037052         0.546850
 H         3.992973         0.294611         1.776268
