19
Iteration:  1600
 C         0.003038         0.013579        -0.127803
 C         1.528007         0.059358         0.021648
 C         2.184826         1.136954        -0.848773
 C         3.635162         0.915033        -0.358633
 C         4.150648        -0.334206        -0.993015
 C         3.437620        -1.115969         0.113736
 O         1.967997        -1.321965        -0.214553
 C         3.308248         0.240658         0.991796
 O         1.978620         0.438791         1.286875
 H        -0.470573        -0.649475         0.640966
 H        -0.570715         0.895308         0.001427
 H        -0.325912        -0.532068        -1.016212
 H         2.158549         1.132826        -1.889456
 H         1.760121         2.101789        -0.493118
 H         4.355792         1.817760        -0.274524
 H         3.711163        -0.495492        -2.057502
 H         5.207942        -0.530489        -1.102096
 H         3.794202        -2.009197         0.672435
 H         3.985930         0.241378         1.860651
