19
Iteration:  4505charge 0 multiplicity 1
 C        -0.050209        -0.034729        -0.019500
 C         1.443800         0.120050        -0.007963
 C         2.229099         1.130016        -0.879145
 C         3.588275         0.944471        -0.323468
 C         4.201868        -0.374258        -0.956043
 C         3.416968        -1.078283         0.102110
 O         2.050485        -1.198720        -0.250089
 C         3.338984         0.155635         0.996871
 O         1.939889         0.376604         1.231434
 H        -0.476960        -0.809391         0.710850
 H        -0.484461         0.980262         0.306321
 H        -0.248373        -0.362135        -1.118982
 H         2.151548         0.842594        -1.998667
 H         1.717732         2.143619        -0.830023
 H         4.130162         1.863425        -0.252992
 H         3.965626        -0.666487        -1.946503
 H         5.274599        -0.524471        -0.810058
 H         3.775570        -2.115326         0.483680
 H         4.045044         0.276693         1.885726
