19
Iteration:  4692
 C        -0.083221         0.071799         0.065994
 C         1.443915         0.017578        -0.040872
 C         2.186904         1.149817        -0.912189
 C         3.629238         0.996734        -0.327173
 C         4.280892        -0.302994        -0.895306
 C         3.373335        -1.145819         0.146909
 O         2.041940        -1.337102        -0.371575
 C         3.259359         0.183885         0.907273
 O         1.950011         0.387740         1.272236
 H        -0.190774        -0.658046         0.951745
 H        -0.360187         1.064138         0.525253
 H        -0.499276        -0.390446        -0.790219
 H         2.313361         0.869524        -1.925809
 H         1.846145         2.194461        -0.808012
 H         4.268190         1.876165        -0.210891
 H         4.178951        -0.463032        -1.970459
 H         5.377227        -0.503431        -0.634452
 H         3.904290        -2.019284         0.469613
 H         3.921308         0.390454         1.724693
