19
Iteration:   552
 C        -0.141384         0.122800         0.056270
 C         1.399783         0.017538        -0.030379
 C         2.121899         1.055781        -0.938630
 C         3.653431         0.935740        -0.333013
 C         4.246467        -0.342769        -0.958436
 C         3.546332        -1.111630         0.032255
 O         2.081106        -1.337848        -0.287836
 C         3.315291         0.250265         1.026582
 O         1.933440         0.396964         1.286853
 H        -0.628855        -0.699385         0.769615
 H        -0.304808         1.088309         0.517296
 H        -0.611997         0.187616        -1.007931
 H         2.331268         0.694587        -2.006485
 H         1.691391         2.053058        -0.970542
 H         4.157729         1.936437        -0.373503
 H         4.303069        -0.513464        -2.009427
 H         5.275241        -0.366624        -0.522772
 H         3.732140        -2.060268         0.494462
 H         3.842935         0.421329         1.951808
