19
Iteration:  1683
 C        -0.039745        -0.081702         0.115261
 C         1.446517         0.114127        -0.068487
 C         2.253156         1.118632        -0.949181
 C         3.623547         0.924648        -0.406812
 C         4.308814        -0.373666        -0.913259
 C         3.370127        -1.095987         0.183077
 O         1.970521        -1.212438        -0.325623
 C         3.336601         0.240843         0.934339
 O         1.902764         0.380403         1.251141
 H        -0.108813        -0.963421         0.683558
 H        -0.566996         0.751009         0.695293
 H        -0.729932        -0.010111        -0.786673
 H         2.317668         0.954743        -2.125166
 H         1.957471         2.138136        -0.605533
 H         4.251568         1.743838        -0.322421
 H         3.978557        -0.765867        -1.863831
 H         5.445750        -0.419442        -0.721244
 H         3.687720        -2.014550         0.712476
 H         3.924218         0.562636         1.862643
