19
Iteration:  3420
 C        -0.051576         0.023199        -0.009784
 C         1.408571         0.039428        -0.003201
 C         2.254957         1.035826        -0.950132
 C         3.673474         0.977562        -0.371625
 C         4.237772        -0.307945        -0.971874
 C         3.413415        -1.116203         0.081857
 O         2.008370        -1.270986        -0.250109
 C         3.353507         0.245572         0.984992
 O         1.862975         0.373427         1.350623
 H        -0.471968        -0.858252         0.600720
 H        -0.373790         0.908603         0.541487
 H        -0.431736         0.083505        -1.031747
 H         2.253598         0.744035        -2.044957
 H         1.757783         2.054989        -1.039344
 H         4.393354         1.809509        -0.231657
 H         4.215218        -0.316928        -2.087441
 H         5.290420        -0.300397        -0.828253
 H         3.650837        -2.054636         0.572905
 H         4.010312         0.344339         1.904752
