19
Iteration:  4333charge 0 multiplicity 1
 C        -0.074081        -0.024866        -0.103644
 C         1.506397         0.020203        -0.033685
 C         2.226493         1.151133        -0.837838
 C         3.673782         1.034717        -0.305331
 C         4.173034        -0.385128        -0.949867
 C         3.375486        -1.102446         0.081392
 O         1.993497        -1.329059        -0.191068
 C         3.304376         0.234534         0.931600
 O         1.988283         0.424066         1.290261
 H        -0.512941        -0.845822         0.533924
 H        -0.488029         0.972028         0.198514
 H        -0.228931        -0.194005        -1.143968
 H         2.141452         0.923673        -1.907341
 H         1.705834         2.165906        -0.547638
 H         4.326650         1.883937        -0.336376
 H         3.700261        -0.396955        -2.015698
 H         5.245121        -0.567193        -0.887049
 H         3.865102        -1.991651         0.420589
 H         4.033350         0.216944         1.795670
