19
Iteration:  3478charge 0 multiplicity 1
 C        -0.067648        -0.034553         0.036578
 C         1.427417         0.107732        -0.014964
 C         2.181416         1.143364        -0.867658
 C         3.670174         0.957437        -0.435995
 C         4.300945        -0.446350        -0.921340
 C         3.384284        -1.091264         0.186263
 O         2.063989        -1.206854        -0.348922
 C         3.342461         0.229107         0.981850
 O         1.871789         0.372842         1.231188
 H        -0.045441        -0.796692         0.722740
 H        -0.434531         0.941133         0.306064
 H        -0.473917        -0.457412        -0.874716
 H         1.948107         1.059365        -1.985829
 H         1.759594         2.116446        -0.346124
 H         4.257387         1.872143        -0.450354
 H         3.971903        -0.850368        -1.847684
 H         5.281150        -0.377438        -0.713557
 H         3.717453        -2.064254         0.706504
 H         3.898112         0.344047         1.866924
