19
Iteration:  1527charge 0 multiplicity 1
 C        -0.046952         0.079933         0.093514
 C         1.419548         0.092927        -0.092639
 C         2.146342         1.067006        -0.971196
 C         3.609850         0.931596        -0.318842
 C         4.286974        -0.321006        -0.855868
 C         3.406381        -1.112101         0.080716
 O         2.058500        -1.287334        -0.304718
 C         3.310395         0.163979         0.957268
 O         1.946089         0.371035         1.281737
 H        -0.567230        -0.602111         0.865454
 H        -0.390482         1.057569         0.374206
 H        -0.618731        -0.214697        -0.745245
 H         2.163559         0.817881        -2.092440
 H         1.932469         2.212376        -0.954237
 H         4.244180         1.824062        -0.279991
 H         4.373302        -0.640338        -1.927037
 H         5.310787        -0.149153        -0.499994
 H         3.707857        -2.119058         0.209177
 H         3.901051         0.467368         1.785354
