19
Iteration:  2291charge 0 multiplicity 1
 C        -0.007122        -0.098236        -0.132486
 C         1.366788         0.088936        -0.034325
 C         2.192933         1.242465        -0.832048
 C         3.631469         0.875568        -0.412062
 C         4.139216        -0.398623        -0.957623
 C         3.376611        -1.143956         0.174250
 O         2.064914        -1.213315        -0.308351
 C         3.357181         0.249790         1.049425
 O         2.017513         0.412762         1.337142
 H        -0.188261        -0.903157         0.596203
 H        -0.599799         0.666110         0.286151
 H        -0.262642        -0.263921        -1.127760
 H         1.851415         1.052407        -1.906636
 H         1.826980         2.255436        -0.457164
 H         4.221726         1.864543        -0.522919
 H         3.823255        -0.649719        -1.966024
 H         5.293526        -0.545776        -1.048071
 H         3.812204        -2.068319         0.495000
 H         3.942027         0.438466         2.015378
