19
Iteration:   100
 C        -0.111109         0.062514        -0.187322
 C         1.418705         0.033110         0.039581
 C         2.102498         1.039068        -0.915226
 C         3.573468         0.923730        -0.412286
 C         4.223592        -0.332134        -1.054792
 C         3.466791        -1.113358         0.171100
 O         2.068251        -1.333205        -0.134232
 C         3.346827         0.241917         0.977754
 O         2.069486         0.483392         1.421310
 H        -0.760473        -0.738289         0.317674
 H        -0.507879         0.972597        -0.024033
 H        -0.198756        -0.138262        -1.302902
 H         1.989276         0.636215        -1.896869
 H         1.588239         2.008072        -0.877316
 H         4.087972         1.840785        -0.498519
 H         3.835053        -0.602150        -2.046266
 H         5.263480        -0.273092        -0.953061
 H         3.862368        -2.000045         0.569191
 H         4.115767         0.458590         1.792399
