19
Iteration:   597charge 0 multiplicity 1
 C        -0.134352        -0.049125         0.016054
 C         1.411167         0.075990         0.015767
 C         2.173857         1.157761        -0.905705
 C         3.619913         0.969315        -0.422204
 C         4.293467        -0.418378        -0.911281
 C         3.380236        -1.111092         0.118066
 O         2.083934        -1.187557        -0.327704
 C         3.355554         0.204210         0.987840
 O         1.966173         0.422191         1.292517
 H        -0.466573        -0.636395         1.039211
 H        -0.599713         0.885758         0.091233
 H        -0.460724        -0.551286        -0.966980
 H         1.982471         0.741205        -1.919335
 H         1.639612         2.112833        -0.804763
 H         4.283724         1.838017        -0.485489
 H         4.369595        -0.839335        -1.908610
 H         5.288203        -0.502368        -0.401185
 H         3.705524        -2.209562         0.278882
 H         3.981709         0.296883         1.939515
