19
Iteration:   126
 C        -0.044290        -0.069932        -0.042496
 C         1.445713         0.090135        -0.005378
 C         2.187391         1.067090        -0.886109
 C         3.649781         0.940044        -0.435133
 C         4.217888        -0.412065        -0.948414
 C         3.375096        -1.118684         0.130947
 O         2.038561        -1.266273        -0.200735
 C         3.359423         0.288019         0.899656
 O         1.942528         0.488638         1.317185
 H        -0.224800        -0.990078         0.465724
 H        -0.688341         0.767834         0.475896
 H        -0.398440        -0.145961        -1.058235
 H         1.879906         1.042392        -1.956157
 H         1.737741         2.030579        -0.533620
 H         4.202392         1.927882        -0.515832
 H         4.097133        -0.700360        -2.028384
 H         5.304346        -0.499273        -0.606979
 H         3.823090        -2.110577         0.676328
 H         4.000080         0.533258         1.746743
