19
Iteration:  3109
 C        -0.061544        -0.110485        -0.189994
 C         1.403229         0.147607         0.050774
 C         2.164025         1.265829        -0.797545
 C         3.615174         0.914088        -0.380638
 C         4.205316        -0.431612        -0.955240
 C         3.403379        -1.173729         0.087787
 O         2.023407        -1.189693        -0.290287
 C         3.356585         0.172894         0.990649
 O         2.032275         0.441124         1.354231
 H        -0.565844        -0.768417         0.569670
 H        -0.578021         0.804206        -0.073529
 H         0.039602        -0.592637        -1.173760
 H         1.979349         1.279823        -1.863057
 H         1.771308         2.139061        -0.258512
 H         4.048865         1.879291        -0.424889
 H         4.090360        -0.848771        -1.869556
 H         5.297044        -0.424699        -0.777441
 H         3.677849        -2.173354         0.333103
 H         4.037819         0.099994         1.932050
