19
Iteration:   865charge 0 multiplicity 1
 C        -0.178223        -0.100667         0.030104
 C         1.363986         0.143650        -0.037789
 C         2.236474         1.103691        -0.960795
 C         3.641567         0.863966        -0.480413
 C         4.339549        -0.396824        -0.892649
 C         3.472057        -1.094798         0.158388
 O         2.021091        -1.114939        -0.264424
 C         3.335050         0.241398         0.980444
 O         1.947404         0.387853         1.306311
 H        -0.255241        -0.994776         0.729001
 H        -0.815969         0.722436         0.401496
 H        -0.565526        -0.316462        -1.026680
 H         1.970000         0.858726        -2.065418
 H         2.034293         2.114859        -0.757600
 H         4.159412         1.864383        -0.517530
 H         4.276089        -0.624427        -1.957364
 H         5.376368        -0.554745        -0.456395
 H         3.590066        -2.115203         0.554282
 H         3.931658         0.386794         1.941715
