19
Iteration:  3734
 C        -0.117186        -0.021855         0.111852
 C         1.461055         0.091821        -0.076879
 C         2.208882         1.075926        -0.883418
 C         3.604288         0.953920        -0.384777
 C         4.271365        -0.348978        -0.839503
 C         3.412041        -1.134964         0.158959
 O         2.092382        -1.204043        -0.383597
 C         3.286801         0.227930         0.953575
 O         1.955266         0.360833         1.206898
 H        -0.182330        -0.675616         0.979799
 H        -0.303805         1.029034         0.213794
 H        -0.673418        -0.321293        -0.808383
 H         1.795821         0.938921        -1.909656
 H         1.623578         2.141182        -0.651348
 H         4.240502         1.847228        -0.628340
 H         4.123332        -0.613684        -1.822748
 H         5.282877        -0.447160        -0.441424
 H         3.672511        -2.059511         0.644243
 H         3.857257         0.352128         1.849399
