19
Iteration:  1952charge 0 multiplicity 1
 C        -0.047594        -0.030832         0.145633
 C         1.420827         0.059769        -0.023313
 C         2.220057         1.106690        -0.973263
 C         3.607015         0.999431        -0.352029
 C         4.364908        -0.325207        -0.865838
 C         3.389973        -1.112982         0.136550
 O         1.992321        -1.245545        -0.349869
 C         3.294157         0.160538         0.921730
 O         1.917091         0.428559         1.218176
 H        -0.293226        -0.532184         1.080243
 H        -0.483149         1.044634         0.102875
 H        -0.355159        -0.762019        -0.723015
 H         1.964496         0.866397        -1.977891
 H         1.810299         2.070118        -0.701286
 H         4.397008         1.906084        -0.493688
 H         4.017993        -0.663056        -1.850772
 H         5.377597        -0.496148        -0.549121
 H         3.838588        -2.024967         0.616139
 H         3.901245         0.203960         1.807307
