19
Iteration:  2015
 C        -0.042779         0.007013        -0.154800
 C         1.488326         0.061720         0.035885
 C         2.127836         1.219080        -0.858933
 C         3.620233         0.920253        -0.399186
 C         4.147189        -0.405553        -0.972623
 C         3.480164        -1.143915         0.121299
 O         2.085134        -1.315590        -0.188278
 C         3.369262         0.271726         0.986400
 O         1.933799         0.387623         1.317067
 H        -0.525822        -0.729475         0.410953
 H        -0.702948         0.851821         0.186910
 H        -0.399268        -0.007614        -1.219249
 H         1.990633         1.021293        -1.938918
 H         1.758385         2.252911        -0.437389
 H         4.184470         1.852280        -0.496228
 H         3.848824        -0.719438        -2.067081
 H         5.238953        -0.386361        -0.862335
 H         3.676328        -2.150252         0.598072
 H         4.072044         0.520417         1.759033
