19
Iteration:   325charge 0 multiplicity 1
 C        -0.028037         0.160320         0.049638
 C         1.466117         0.045875        -0.067263
 C         2.160493         1.047095        -0.980852
 C         3.578830         0.957161        -0.413021
 C         4.244741        -0.291247        -0.967539
 C         3.438438        -1.045193         0.098224
 O         2.069661        -1.304507        -0.234184
 C         3.265438         0.219849         1.029224
 O         1.923646         0.280499         1.296049
 H        -0.274098        -0.836588         0.594299
 H        -0.234977         0.935414         0.666546
 H        -0.637275         0.039170        -0.891414
 H         2.117830         0.821974        -2.056195
 H         1.721892         1.980571        -0.658466
 H         4.294301         1.691844        -0.602354
 H         4.325310        -0.755507        -1.942761
 H         5.238523        -0.161471        -0.458352
 H         3.894449        -2.038537         0.549741
 H         3.867550         0.404489         1.909805
