19
Iteration:   932charge 0 multiplicity 1
 C        -0.021159         0.023985        -0.106367
 C         1.443023         0.115360         0.061605
 C         2.151060         1.122677        -0.868460
 C         3.598265         0.975297        -0.513865
 C         4.257000        -0.398369        -0.954193
 C         3.442038        -1.117342         0.188943
 O         2.032662        -1.268922        -0.192892
 C         3.311317         0.161597         1.002339
 O         1.923088         0.380296         1.312194
 H        -0.541929        -0.879514         0.483979
 H        -0.465639         0.945385         0.062031
 H        -0.285209        -0.019749        -1.185662
 H         1.978713         0.776968        -1.970430
 H         1.667603         2.047014        -0.894540
 H         4.218589         1.971695        -0.513352
 H         4.135339        -0.627615        -2.006210
 H         5.392819        -0.350402        -0.772132
 H         4.110468        -1.869261         0.515857
 H         4.037291         0.448071         1.745664
