19
Iteration:  3665
 C         0.015959         0.022102        -0.140758
 C         1.408220         0.045276         0.001271
 C         2.153130         1.147809        -0.816113
 C         3.639811         0.956740        -0.411090
 C         4.191916        -0.362436        -0.962576
 C         3.430736        -1.165675         0.127532
 O         2.044531        -1.307939        -0.171389
 C         3.328310         0.297407         0.971007
 O         1.958042         0.346775         1.269111
 H        -0.429012        -0.628624         0.599524
 H        -0.280677         1.053264         0.001050
 H        -0.380641        -0.232979        -1.066422
 H         1.995535         0.893191        -1.924908
 H         1.729644         2.261856        -0.588646
 H         4.269374         1.835477        -0.238100
 H         3.688429        -0.528521        -1.915701
 H         5.244132        -0.332105        -1.095751
 H         3.935966        -2.025911         0.618577
 H         3.892463         0.607021         1.903467
