19
Iteration:  2349
 C        -0.048325         0.135948         0.066744
 C         1.410773        -0.023057        -0.013282
 C         2.099601         1.007216        -0.966912
 C         3.563545         0.979323        -0.377255
 C         4.280289        -0.306080        -0.909656
 C         3.481446        -1.091251         0.137604
 O         2.065333        -1.214876        -0.394867
 C         3.398903         0.191813         0.959747
 O         1.898850         0.306914         1.354848
 H        -0.281776        -0.278409         0.995152
 H        -0.135217         1.248626        -0.047806
 H        -0.571976        -0.390123        -0.772290
 H         2.169915         0.651147        -1.994244
 H         1.800094         2.031065        -0.854313
 H         4.081282         1.982080        -0.333882
 H         4.249433        -0.475254        -1.996767
 H         5.323587        -0.378619        -0.509126
 H         3.525626        -2.052169         0.623529
 H         3.897338         0.283590         1.847356
