19
Iteration:  2437
 C        -0.059762        -0.010067        -0.129594
 C         1.444864         0.033156        -0.032736
 C         2.117283         1.116663        -0.862920
 C         3.621335         0.983593        -0.415628
 C         4.185637        -0.405555        -0.994664
 C         3.499487        -1.105931         0.149030
 O         2.066710        -1.193550        -0.179752
 C         3.286830         0.223420         0.983990
 O         1.988967         0.364995         1.363674
 H        -0.441263        -0.936384         0.313438
 H        -0.665764         0.790702         0.343874
 H        -0.492293         0.065586        -1.164993
 H         2.146556         1.038139        -1.956202
 H         1.943657         2.163242        -0.594288
 H         4.169541         1.932425        -0.505342
 H         3.794261        -0.710272        -2.036881
 H         5.286289        -0.520229        -1.036721
 H         3.918139        -2.061403         0.610312
 H         4.025973         0.298313         1.807129
