19
Iteration:  1105
 C        -0.057105        -0.037348         0.078221
 C         1.409418         0.146145        -0.011001
 C         2.194293         1.146287        -1.001313
 C         3.634409         0.979205        -0.462366
 C         4.327052        -0.411145        -0.823189
 C         3.379851        -1.106442         0.113979
 O         2.009750        -1.188313        -0.320108
 C         3.326857         0.178561         0.948506
 O         1.954797         0.333990         1.292453
 H        -0.415742        -1.017143         0.618527
 H        -0.587813         0.672874         0.674403
 H        -0.513730        -0.160897        -0.884503
 H         1.935571         0.916430        -2.138997
 H         2.007404         2.178642        -0.785029
 H         4.172111         1.872742        -0.285627
 H         4.387866        -0.575572        -1.879211
 H         5.324595        -0.216680        -0.356811
 H         3.491380        -2.137501         0.602315
 H         3.910761         0.221504         1.841566
