19
Iteration:  2705
 C         0.022442         0.052969        -0.155355
 C         1.461446         0.040112        -0.013676
 C         2.130513         1.069527        -0.887301
 C         3.560179         0.954296        -0.392728
 C         4.109813        -0.384258        -1.034455
 C         3.425750        -1.113442         0.133043
 O         2.080050        -1.244708        -0.155899
 C         3.379743         0.225878         1.082990
 O         1.953099         0.360775         1.283204
 H        -0.491443        -0.502571         0.670844
 H        -0.251666         1.186299         0.065464
 H        -0.501534        -0.358212        -1.085222
 H         2.377286         0.943246        -1.928248
 H         1.771457         2.052378        -0.692121
 H         4.140667         1.933801        -0.218368
 H         3.899343        -0.546234        -2.057301
 H         5.230906        -0.283399        -0.915388
 H         3.849759        -1.998937         0.528939
 H         4.086884         0.395996         1.892884
