19
Iteration:  4362charge 0 multiplicity 1
 C        -0.030326         0.078876        -0.071951
 C         1.513378         0.104480        -0.019092
 C         2.151697         1.109144        -0.866919
 C         3.556052         0.922898        -0.375671
 C         4.215328        -0.402985        -0.959866
 C         3.484664        -1.103713         0.163315
 O         2.041884        -1.255832        -0.278712
 C         3.292448         0.245166         1.014631
 O         1.958780         0.319259         1.308835
 H        -0.537790        -0.727483         0.425731
 H        -0.625195         0.911729         0.361397
 H        -0.232717         0.010890        -1.179698
 H         1.884084         0.813630        -1.875084
 H         1.811358         2.056219        -0.671071
 H         4.215172         1.786661        -0.489651
 H         3.844216        -0.525509        -1.989360
 H         5.330995        -0.357113        -0.910937
 H         3.904547        -2.086448         0.470149
 H         3.920221         0.479080         1.852223
