19
Iteration:  2981charge 0 multiplicity 1
 C        -0.041461        -0.081706        -0.142361
 C         1.472191        -0.002722        -0.045358
 C         2.223574         1.232183        -0.812303
 C         3.647203         0.961703        -0.419903
 C         4.107686        -0.405756        -0.939167
 C         3.380599        -1.135745         0.102661
 O         2.054265        -1.193775        -0.277731
 C         3.369305         0.196927         1.045013
 O         1.969428         0.420591         1.353081
 H        -0.295697        -0.909130         0.536432
 H        -0.469361         0.877732         0.028299
 H        -0.349950        -0.408230        -1.132988
 H         2.053069         1.257732        -1.872186
 H         1.843161         2.134629        -0.415392
 H         4.349748         1.782395        -0.435501
 H         3.710754        -0.730591        -1.975784
 H         5.185378        -0.329030        -0.871227
 H         3.539217        -2.095800         0.521160
 H         3.870728         0.440355         2.035291
