19
Iteration:   635charge 0 multiplicity 1
 C         0.029394        -0.095102        -0.098723
 C         1.523636         0.078911        -0.053913
 C         2.177449         1.203996        -0.886050
 C         3.640627         1.025550        -0.420086
 C         4.093390        -0.385748        -0.954098
 C         3.341669        -1.139623         0.128415
 O         2.010080        -1.250972        -0.191565
 C         3.349646         0.234988         1.008244
 O         1.982009         0.373612         1.325277
 H        -0.328193        -0.555210         0.722550
 H        -0.489106         0.936518        -0.106114
 H        -0.256467        -0.705167        -0.924915
 H         2.187618         1.006833        -1.969211
 H         1.839233         2.238901        -0.746681
 H         4.297610         1.934215        -0.361399
 H         3.893699        -0.790047        -1.993762
 H         5.164998        -0.467357        -0.749344
 H         3.660477        -2.132926         0.561299
 H         4.007968         0.324129         1.831371
