19
Iteration:  4403
 C        -0.121312        -0.022459         0.049616
 C         1.358932         0.063507        -0.110203
 C         2.178946         1.089838        -0.920346
 C         3.636059         0.910401        -0.377416
 C         4.344678        -0.321507        -0.823473
 C         3.419041        -1.155823         0.039481
 O         1.935152        -1.178818        -0.329251
 C         3.336368         0.230902         0.994922
 O         2.028895         0.396011         1.298709
 H        -0.037047        -0.857076         0.787171
 H        -0.489485         0.899346         0.533737
 H        -0.398765        -0.362678        -1.005636
 H         2.238605         0.933314        -2.071016
 H         1.872685         2.146048        -0.676762
 H         4.148998         1.927183        -0.341486
 H         4.248145        -0.667331        -1.768127
 H         5.352643        -0.387627        -0.376900
 H         3.577785        -2.218159         0.410562
 H         3.946318         0.402593         1.844811
