19
Iteration:  3869charge 0 multiplicity 1
 C        -0.023326         0.016048         0.056101
 C         1.421459         0.094466         0.009815
 C         2.189729         1.047189        -0.928418
 C         3.560196         0.993521        -0.360242
 C         4.357163        -0.285665        -0.887291
 C         3.398374        -1.179444         0.057956
 O         1.994805        -1.202626        -0.328760
 C         3.283895         0.174840         0.966288
 O         1.996439         0.386177         1.297176
 H        -0.476618        -0.590072         0.888893
 H        -0.542646         1.003798         0.253750
 H        -0.412895        -0.408030        -0.901437
 H         2.019287         0.643936        -1.911967
 H         1.611555         1.941400        -0.956117
 H         4.024720         1.934352        -0.270280
 H         4.453491        -0.410772        -1.976696
 H         5.312363        -0.583841        -0.592652
 H         3.744052        -2.238066         0.169973
 H         3.880453         0.269338         1.915060
