19
Iteration:  2340charge 0 multiplicity 1
 C        -0.063283         0.094925         0.060505
 C         1.451993        -0.002242         0.023105
 C         2.209649         1.035370        -0.983532
 C         3.554576         0.978545        -0.360578
 C         4.301429        -0.287572        -0.876452
 C         3.486333        -1.163617         0.079007
 O         1.981520        -1.212870        -0.349954
 C         3.309415         0.199612         0.985532
 O         1.943168         0.340774         1.328567
 H        -0.578945        -0.257434         0.977946
 H        -0.417044         1.171309        -0.061614
 H        -0.453151        -0.379009        -0.911462
 H         2.095406         0.643866        -1.956707
 H         1.607689         1.873686        -0.793191
 H         4.018771         1.946441        -0.409537
 H         4.213888        -0.480979        -1.978428
 H         5.334570        -0.245701        -0.692389
 H         4.050255        -2.121837         0.341546
 H         4.052602         0.365684         1.781098
