19
Iteration:  4442charge 0 multiplicity 1
 C        -0.073910        -0.007771        -0.032070
 C         1.473923         0.074757        -0.039395
 C         2.214303         1.095733        -0.899855
 C         3.643786         0.978930        -0.345881
 C         4.211105        -0.371825        -0.928009
 C         3.412742        -1.111795         0.172984
 O         2.014928        -1.224748        -0.335658
 C         3.355528         0.218207         1.016541
 O         1.939679         0.358722         1.315778
 H        -0.437607        -0.667093         0.766254
 H        -0.516781         0.974128        -0.008052
 H        -0.611489        -0.393251        -0.832850
 H         2.245199         1.011579        -1.955376
 H         1.794567         2.103830        -0.638283
 H         4.211588         1.889280        -0.434918
 H         3.871288        -0.671814        -2.022328
 H         5.288988        -0.446732        -1.039755
 H         3.746412        -2.099962         0.353731
 H         4.007511         0.466925         1.885565
