19
Iteration:   533charge 0 multiplicity 1
 C        -0.111306         0.028312        -0.067173
 C         1.451250         0.092036         0.066867
 C         2.148741         1.064784        -0.911288
 C         3.599702         0.960297        -0.444312
 C         4.301509        -0.308067        -0.935807
 C         3.400602        -1.158575         0.082360
 O         2.029907        -1.264672        -0.206844
 C         3.334797         0.165145         0.979714
 O         1.996035         0.417930         1.317231
 H        -0.421041        -1.017689         0.299459
 H        -0.564780         0.858460         0.375491
 H        -0.495475         0.094420        -1.100698
 H         2.082217         0.846377        -1.965319
 H         1.774491         2.058317        -0.647093
 H         4.069414         1.889235        -0.333607
 H         4.058302        -0.443325        -2.006133
 H         5.408144        -0.276152        -0.767078
 H         3.789423        -2.225700         0.454491
 H         4.103423         0.461794         1.769570
