19
Iteration:   235
 C        -0.119735        -0.084153        -0.171434
 C         1.470284        -0.009154        -0.013944
 C         2.139713         1.076284        -0.805286
 C         3.709608         0.944236        -0.449032
 C         4.093908        -0.391337        -0.978123
 C         3.434218        -1.057706         0.140803
 O         2.121854        -1.221529        -0.225308
 C         3.325388         0.198200         1.019020
 O         2.029052         0.529135         1.341794
 H        -0.506876        -0.573288         0.658059
 H        -0.452725         1.068122        -0.044975
 H        -0.379880        -0.598478        -1.068236
 H         2.019772         0.894518        -1.906938
 H         1.681702         1.948015        -0.293303
 H         4.137146         2.006745        -0.649000
 H         3.455169        -0.740556        -1.831821
 H         5.214476        -0.431050        -1.189428
 H         3.669955        -2.094319         0.714864
 H         3.838680         0.312674         1.930935
