19
Iteration:  1063
 C        -0.055179        -0.018171        -0.101978
 C         1.487679         0.039304         0.029889
 C         2.200912         1.125323        -0.893071
 C         3.616101         0.955386        -0.380887
 C         4.168372        -0.314077        -0.946468
 C         3.311159        -1.100413         0.200386
 O         2.043767        -1.271107        -0.296025
 C         3.363360         0.230060         1.026432
 O         2.008161         0.405293         1.270949
 H        -0.392669        -1.055282         0.449412
 H        -0.564295         0.869734         0.369924
 H        -0.333034        -0.116024        -1.158831
 H         2.096320         0.978162        -2.027081
 H         1.775770         2.048248        -0.548281
 H         4.299203         1.880475        -0.402442
 H         3.764231        -0.671219        -1.882001
 H         5.228662        -0.654097        -0.924814
 H         3.871663        -1.923779         0.573581
 H         4.037698         0.316640         1.826302
