19
Iteration:  2029
 C        -0.091121        -0.079522        -0.085915
 C         1.422672         0.021571        -0.073766
 C         2.210476         1.166288        -0.861810
 C         3.620263         0.972188        -0.439498
 C         4.203021        -0.395261        -0.976800
 C         3.415822        -1.108284         0.183870
 O         2.016677        -1.194689        -0.187077
 C         3.321078         0.220676         1.005498
 O         2.004028         0.408986         1.293257
 H        -0.338722        -1.061076         0.372164
 H        -0.281161         0.828087         0.472977
 H        -0.314013        -0.050052        -1.186840
 H         2.059034         1.224105        -1.906423
 H         1.798464         2.055268        -0.482453
 H         4.417683         1.843084        -0.371394
 H         3.847904        -0.714228        -1.930927
 H         5.276211        -0.603172        -0.970903
 H         3.842610        -2.050373         0.432450
 H         3.854301         0.356624         1.940999
