19
Iteration:  1077charge 0 multiplicity 1
 C        -0.054618        -0.097324        -0.003181
 C         1.432469         0.094110        -0.056253
 C         2.221497         1.107085        -0.847006
 C         3.660470         0.922883        -0.355147
 C         4.175464        -0.454515        -0.918348
 C         3.440436        -1.135332         0.136321
 O         2.052956        -1.208251        -0.347388
 C         3.331789         0.260724         0.981728
 O         1.929152         0.480037         1.269134
 H        -0.277552        -1.017043         0.504241
 H        -0.554752         0.729421         0.649411
 H        -0.501060        -0.122303        -1.005187
 H         2.113129         1.022943        -1.870888
 H         1.886187         2.157125        -0.567408
 H         4.260406         1.947973        -0.328219
 H         3.914543        -0.579228        -1.999154
 H         5.238310        -0.367811        -0.752246
 H         3.556261        -2.097386         0.526207
 H         3.884789         0.433946         1.917721
