19
Iteration:   543
 C        -0.168013         0.077129        -0.014511
 C         1.381321         0.083630        -0.015463
 C         2.181811         1.080740        -0.946210
 C         3.570479         0.897964        -0.328160
 C         4.296144        -0.281711        -0.958658
 C         3.493549        -1.193416         0.063669
 O         2.065487        -1.320857        -0.228411
 C         3.361192         0.262645         0.983189
 O         1.962658         0.428201         1.325663
 H        -0.718180        -0.821171         0.548777
 H        -0.491927         0.873348         0.528090
 H        -0.446899         0.089302        -1.107703
 H         1.892799         0.775248        -1.942764
 H         1.869744         2.120891        -0.861602
 H         4.146828         1.771900        -0.382178
 H         4.206724        -0.581996        -2.005890
 H         5.388259        -0.366585        -0.686599
 H         4.005134        -2.250610         0.139557
 H         4.021670         0.374590         1.897077
