19
Iteration:  4461
 C        -0.015643         0.053343        -0.155111
 C         1.465426         0.050397         0.038540
 C         2.060074         1.168146        -0.798116
 C         3.602531         0.933470        -0.406350
 C         4.223645        -0.377666        -0.959001
 C         3.392361        -1.142838         0.095011
 O         2.053963        -1.241565        -0.211571
 C         3.335097         0.208342         0.953213
 O         2.008229         0.347245         1.313908
 H        -0.596918        -0.581186         0.562786
 H        -0.493148         1.078878        -0.144787
 H        -0.223116        -0.461985        -1.140782
 H         1.932339         1.072806        -1.910447
 H         1.849306         2.186729        -0.571110
 H         4.255439         1.788827        -0.389954
 H         4.171856        -0.645296        -1.953581
 H         5.284530        -0.365808        -0.688866
 H         3.858869        -2.040078         0.579827
 H         3.925994         0.381058         1.889703
