19
Iteration:  4176
 C        -0.035195        -0.070352        -0.027790
 C         1.460978         0.011794        -0.075362
 C         2.185363         1.160292        -0.848286
 C         3.689135         0.958706        -0.397102
 C         4.200699        -0.379856        -0.956542
 C         3.346633        -1.067781         0.141320
 O         2.007729        -1.244535        -0.323501
 C         3.336970         0.248243         1.013249
 O         1.949901         0.393836         1.338083
 H        -0.321183        -0.862976         0.651230
 H        -0.379616         0.785642         0.495791
 H        -0.363695        -0.072742        -1.058242
 H         2.180610         1.318957        -1.977602
 H         1.791930         2.111574        -0.418924
 H         4.228635         1.911594        -0.642121
 H         4.199279        -0.717445        -2.074968
 H         5.297418        -0.587049        -0.882009
 H         3.668868        -2.045860         0.602434
 H         3.879748         0.262910         1.961361
