19
Iteration:  1829charge 0 multiplicity 1
 C        -0.081606        -0.087785         0.013560
 C         1.408566         0.089535         0.036584
 C         2.104444         1.131245        -0.908073
 C         3.662475         0.957084        -0.474182
 C         4.301372        -0.431151        -0.859007
 C         3.387693        -1.122693         0.199462
 O         2.035046        -1.227951        -0.374954
 C         3.322555         0.217562         0.978910
 O         2.010622         0.445256         1.265216
 H        -0.500597        -0.880367         0.734455
 H        -0.457640         0.884199         0.435116
 H        -0.329289        -0.094910        -1.036758
 H         2.123338         0.877285        -1.921599
 H         1.604751         2.111173        -0.821887
 H         4.331195         1.894875        -0.552673
 H         4.117024        -0.563955        -1.938888
 H         5.278371        -0.309769        -0.522455
 H         3.574307        -2.084709         0.778042
 H         3.985424         0.469313         1.835347
