19
Iteration:  3787charge 0 multiplicity 1
 C        -0.095027        -0.037689        -0.154199
 C         1.428553         0.093292         0.050009
 C         2.171190         1.073183        -0.890458
 C         3.603747         0.937414        -0.317426
 C         4.228382        -0.315862        -0.986953
 C         3.416079        -1.054889         0.093912
 O         1.944677        -1.261327        -0.240741
 C         3.431443         0.260859         1.020158
 O         2.040507         0.374654         1.346934
 H        -0.451258        -1.007712         0.158675
 H        -0.517584         0.852206         0.181357
 H        -0.115850         0.043816        -1.195083
 H         2.062835         0.611327        -1.903040
 H         1.491328         1.983891        -0.708318
 H         4.270913         1.835389        -0.436107
 H         3.903348        -0.589649        -1.952927
 H         5.270209        -0.497235        -0.715682
 H         3.761318        -2.055822         0.305679
 H         4.071919         0.364250         1.878670
