19
Iteration:  4639charge 0 multiplicity 1
 C        -0.030580        -0.033012        -0.094447
 C         1.437488         0.128284         0.060088
 C         2.106955         1.125144        -0.848728
 C         3.604323         0.983644        -0.405247
 C         4.290884        -0.372129        -0.949225
 C         3.357060        -1.123242         0.170386
 O         2.003817        -1.240859        -0.366840
 C         3.385666         0.188213         1.022160
 O         1.988971         0.365296         1.311348
 H        -0.326093        -0.745906         0.794871
 H        -0.599019         0.954902        -0.017763
 H        -0.270772        -0.496105        -1.100652
 H         2.044390         1.008821        -1.916343
 H         1.911814         2.195338        -0.470015
 H         4.108500         1.980096        -0.477011
 H         3.946447        -0.661160        -1.981462
 H         5.303651        -0.450780        -0.800254
 H         3.887778        -2.004924         0.589221
 H         4.007904         0.291739         1.891511
