19
Iteration:   720charge 0 multiplicity 1
 C        -0.077852        -0.102057         0.115468
 C         1.420471         0.035923        -0.076882
 C         2.148930         1.113516        -0.987848
 C         3.733228         0.930798        -0.390094
 C         4.279487        -0.416604        -0.862564
 C         3.349161        -1.064321         0.123107
 O         2.066361        -1.184439        -0.358067
 C         3.293506         0.232441         0.989612
 O         1.926559         0.484443         1.298460
 H        -0.148147        -1.067254         0.545858
 H        -0.551637         0.788136         0.672071
 H        -0.617817        -0.056079        -0.804846
 H         2.039824         0.855837        -1.981308
 H         1.903409         2.163273        -0.832291
 H         4.298974         1.762456        -0.241160
 H         4.059720        -0.750181        -1.908775
 H         5.295615        -0.664722        -0.609834
 H         3.768210        -2.037479         0.491853
 H         4.022314         0.283648         1.772408
