19
Iteration:  3176
 C        -0.085839         0.112231         0.034314
 C         1.413073         0.044391        -0.004146
 C         2.102991         0.993955        -0.937104
 C         3.572756         1.003343        -0.374438
 C         4.450465        -0.311541        -0.876245
 C         3.398046        -1.101684         0.020964
 O         2.004262        -1.184414        -0.334044
 C         3.301790         0.120669         0.958918
 O         1.972704         0.301771         1.326114
 H        -0.645465        -0.543690         0.722588
 H        -0.285782         1.134532         0.409428
 H        -0.471585        -0.132083        -0.984470
 H         1.950717         0.710668        -1.962253
 H         1.943857         2.065860        -0.614799
 H         4.070110         1.948410        -0.326910
 H         4.588890        -0.490422        -1.875692
 H         5.420118        -0.368762        -0.340862
 H         3.618095        -1.984250         0.520798
 H         4.059085         0.267593         1.790849
