19
Iteration:  1237charge 0 multiplicity 1
 C        -0.046513         0.050312         0.068084
 C         1.478744         0.066645        -0.055402
 C         2.173692         1.072603        -0.876294
 C         3.589244         0.912152        -0.355198
 C         4.317698        -0.350888        -0.919567
 C         3.405947        -1.101946         0.130396
 O         2.005019        -1.275860        -0.387337
 C         3.307047         0.200888         0.953431
 O         1.935389         0.395528         1.272678
 H        -0.295115        -0.655580         0.848295
 H        -0.399904         1.066834         0.506877
 H        -0.652460        -0.184768        -0.811619
 H         2.366455         0.900263        -2.038925
 H         1.650754         2.070844        -0.671358
 H         4.123046         1.861176        -0.347116
 H         4.311147        -0.281673        -2.030395
 H         5.388927        -0.376766        -0.505399
 H         3.695757        -2.085068         0.723592
 H         3.774901         0.394125         1.890986
