19
Iteration:  3054charge 0 multiplicity 1
 C        -0.050881         0.107855         0.084839
 C         1.418533         0.035491        -0.025955
 C         2.192898         1.088299        -0.949772
 C         3.728350         0.990615        -0.256495
 C         4.238168        -0.287629        -0.947288
 C         3.440119        -1.145704         0.149979
 O         2.067176        -1.300347        -0.356100
 C         3.269435         0.154187         0.968515
 O         1.876970         0.374061         1.200137
 H        -0.348557        -0.752851         0.767333
 H        -0.054501         1.080559         0.448850
 H        -0.651112         0.196582        -0.841592
 H         2.116717         0.710296        -1.991726
 H         1.385520         1.966539        -0.912689
 H         4.129356         1.950756        -0.068194
 H         4.115271        -0.531097        -1.937252
 H         5.297274        -0.445260        -0.575299
 H         3.838647        -2.057525         0.495715
 H         3.947318         0.208487         1.901525
