19
Iteration:  2475
 C        -0.104914         0.068791         0.049277
 C         1.433872         0.025368        -0.025773
 C         2.184183         1.057672        -0.995025
 C         3.564146         0.973218        -0.405467
 C         4.327713        -0.307400        -0.869100
 C         3.437492        -1.109742         0.102044
 O         2.033719        -1.246551        -0.286383
 C         3.329766         0.200440         0.927307
 O         1.942236         0.355692         1.337794
 H        -0.350788        -0.764771         0.757736
 H        -0.232416         1.007333         0.626549
 H        -0.503683        -0.037979        -0.945841
 H         2.007984         0.869834        -2.063432
 H         1.580754         1.965417        -0.910556
 H         4.056661         1.978333        -0.455164
 H         4.296801        -0.695107        -1.854022
 H         5.335892        -0.447911        -0.469085
 H         3.812017        -2.062578         0.442946
 H         4.034727         0.365852         1.732355
