19
Iteration:  2806charge 0 multiplicity 1
 C        -0.077880         0.078240        -0.079522
 C         1.514072         0.061365         0.006474
 C         2.098965         1.107616        -0.909440
 C         3.603201         1.021999        -0.369163
 C         4.251662        -0.386879        -0.937577
 C         3.419297        -1.183022         0.131808
 O         2.057849        -1.292231        -0.255753
 C         3.328430         0.264861         1.034213
 O         1.956807         0.347689         1.268184
 H        -0.637971        -0.676388         0.604196
 H        -0.395438         0.945656         0.440950
 H        -0.440120        -0.045299        -1.150742
 H         1.962682         0.944493        -1.984624
 H         1.785063         2.118165        -0.665665
 H         4.203908         1.875396        -0.648587
 H         4.196928        -0.649300        -2.004064
 H         5.276451        -0.525562        -0.713906
 H         3.785398        -2.099180         0.622770
 H         4.098004         0.477282         1.865385
