19
Iteration:  3871charge 0 multiplicity 1
 C        -0.024413         0.017034         0.050089
 C         1.435753         0.090825         0.007666
 C         2.184712         1.056968        -0.929457
 C         3.569475         1.012882        -0.363673
 C         4.361023        -0.281717        -0.875678
 C         3.380379        -1.194088         0.044638
 O         1.994051        -1.208328        -0.308818
 C         3.288116         0.170376         0.955625
 O         1.989667         0.378803         1.306159
 H        -0.576567        -0.609308         0.899014
 H        -0.594672         0.992964         0.179867
 H        -0.491263        -0.369271        -0.859907
 H         2.028699         0.680919        -1.927041
 H         1.652617         1.873541        -0.993906
 H         4.072188         1.983604        -0.220487
 H         4.434029        -0.448376        -2.040912
 H         5.396411        -0.536765        -0.599960
 H         3.769108        -2.241443         0.186439
 H         3.952666         0.308786         1.834179
