19
Iteration:   565charge 0 multiplicity 1
 C        -0.037904         0.150750         0.090841
 C         1.462124        -0.015617        -0.036308
 C         2.190403         0.993525        -0.947102
 C         3.593492         1.030321        -0.398319
 C         4.331513        -0.284817        -0.898535
 C         3.341923        -1.094215         0.178922
 O         2.055970        -1.275763        -0.327656
 C         3.295203         0.192641         0.964477
 O         1.923598         0.325600         1.237769
 H        -0.455797        -0.622660         0.870779
 H        -0.207599         1.079608         0.504543
 H        -0.624116        -0.007800        -0.848309
 H         2.026649         0.703006        -1.988162
 H         1.647565         1.931147        -0.810356
 H         4.161547         1.919493        -0.390084
 H         4.070938        -0.575814        -1.921004
 H         5.438835        -0.399587        -0.759492
 H         3.903092        -1.997280         0.537752
 H         3.965918         0.324168         1.874450
