19
Iteration:   253charge 0 multiplicity 1
 C        -0.070017        -0.135870        -0.096578
 C         1.435510         0.063038        -0.026709
 C         2.172416         1.246648        -0.859452
 C         3.611956         0.927169        -0.421924
 C         4.171207        -0.440221        -0.980851
 C         3.424386        -1.114708         0.211791
 O         1.974791        -1.247851        -0.223680
 C         3.424203         0.288908         0.953648
 O         2.003167         0.439785         1.305743
 H        -0.389707        -0.878328         0.670916
 H        -0.661032         0.795046        -0.083253
 H        -0.212368        -0.692965        -1.045918
 H         2.090958         1.202925        -1.940536
 H         1.806203         2.186583        -0.408392
 H         4.329028         1.773018        -0.350550
 H         3.938077        -0.704514        -2.025256
 H         5.230649        -0.494448        -0.825324
 H         3.766162        -1.995391         0.596943
 H         4.139149         0.546726         1.826094
