19
Iteration:  3796
 C        -0.022667        -0.042635        -0.173464
 C         1.418048         0.018638         0.032614
 C         2.150510         1.096487        -0.860227
 C         3.627079         0.993764        -0.365393
 C         4.191934        -0.349155        -0.936315
 C         3.409393        -1.100546         0.085627
 O         1.970363        -1.249997        -0.262752
 C         3.354272         0.213609         0.979140
 O         2.049869         0.438934         1.401323
 H        -0.583512        -0.941998         0.217325
 H        -0.633732         0.669622         0.355526
 H        -0.214550        -0.046892        -1.212223
 H         1.974161         0.840924        -1.939250
 H         1.905672         2.165468        -0.744179
 H         4.227095         1.944513        -0.339074
 H         3.982679        -0.614307        -2.057605
 H         5.301042        -0.530852        -0.946139
 H         3.826208        -1.981387         0.593195
 H         4.070669         0.338375         1.803970
