19
Iteration:  1979
 C        -0.112899         0.030868        -0.081631
 C         1.421662         0.026944        -0.001955
 C         2.178591         1.044798        -0.935942
 C         3.600892         0.991003        -0.336245
 C         4.249274        -0.311816        -0.959384
 C         3.442553        -1.118662         0.082038
 O         2.001221        -1.213166        -0.230605
 C         3.398648         0.230828         0.974230
 O         1.973952         0.364522         1.371754
 H        -0.557689        -0.533575         0.771077
 H        -0.199080         1.067471        -0.063939
 H        -0.357370        -0.507437        -0.946060
 H         1.968419         0.684955        -1.998220
 H         1.603772         2.022353        -0.883453
 H         4.200571         1.788435        -0.549025
 H         4.175369        -0.600224        -2.028874
 H         5.293605        -0.582247        -0.574552
 H         3.796303        -2.131218         0.364485
 H         4.049450         0.471235         1.847865
