19
Iteration:  2749charge 0 multiplicity 1
 C        -0.063560        -0.066514         0.064879
 C         1.453470         0.107595        -0.028280
 C         2.141575         1.163866        -0.922814
 C         3.623390         0.920196        -0.380772
 C         4.341257        -0.404682        -0.879154
 C         3.387925        -1.156618         0.098129
 O         1.998383        -1.139383        -0.315206
 C         3.311384         0.214247         0.939759
 O         1.970781         0.407884         1.280758
 H        -0.425761        -0.694856         0.906917
 H        -0.790377         0.785002        -0.139102
 H        -0.501909        -0.695878        -0.768943
 H         1.977096         0.932988        -1.961720
 H         1.877181         2.131409        -0.604641
 H         4.335537         1.750061        -0.638972
 H         4.509120        -0.749485        -1.861370
 H         5.267643        -0.469571        -0.231357
 H         3.637026        -2.125634         0.438078
 H         3.983958         0.336955         1.792762
