19
Iteration:  3018charge 0 multiplicity 1
 C        -0.101917        -0.024424        -0.022235
 C         1.440662         0.132663         0.021976
 C         2.139678         1.103325        -0.947585
 C         3.637565         0.983707        -0.421668
 C         4.336995        -0.367148        -0.890135
 C         3.386897        -1.126189         0.107812
 O         2.009232        -1.143497        -0.321452
 C         3.328418         0.175911         0.965791
 O         1.953806         0.309451         1.350518
 H        -0.549016        -0.790708         0.590095
 H        -0.549295         0.841992         0.567241
 H        -0.499767        -0.047087        -1.051917
 H         2.080186         0.809641        -2.004659
 H         1.853082         2.097625        -0.826105
 H         4.411290         1.788384        -0.317626
 H         4.551135        -0.715022        -1.883807
 H         5.304766        -0.385306        -0.387771
 H         3.772953        -2.202072         0.327050
 H         3.914875         0.242650         1.837938
