19
Iteration:  1433
 C        -0.051627        -0.050754        -0.008735
 C         1.406169         0.135024        -0.043917
 C         2.240841         1.184631        -0.836467
 C         3.659938         0.918045        -0.424375
 C         4.202868        -0.377529        -0.948495
 C         3.450077        -1.116249         0.140905
 O         2.011853        -1.239962        -0.315308
 C         3.314573         0.226146         1.030765
 O         1.927470         0.392038         1.298507
 H        -0.341931        -0.911833         0.621030
 H        -0.708401         0.840656         0.299919
 H        -0.295390        -0.339692        -1.047170
 H         2.111375         0.988487        -1.946287
 H         1.761152         2.090050        -0.618471
 H         4.308464         1.770653        -0.287595
 H         3.833636        -0.746971        -1.911333
 H         5.351870        -0.435968        -0.929583
 H         3.960681        -2.154195         0.402043
 H         4.035252         0.265048         1.855275
