19
Iteration:   282
 C        -0.089498        -0.024579         0.029386
 C         1.433154         0.109584        -0.028337
 C         2.150250         1.053576        -0.940088
 C         3.625267         0.927313        -0.484860
 C         4.277728        -0.358246        -0.889826
 C         3.382484        -1.071235         0.115320
 O         2.022494        -1.189536        -0.320646
 C         3.387502         0.189570         1.010749
 O         1.947163         0.417439         1.344103
 H        -0.263399        -0.842567         0.834313
 H        -0.483076         0.864426         0.328198
 H        -0.449439        -0.461886        -0.947603
 H         2.041047         0.627119        -1.948557
 H         1.805038         2.076652        -0.806463
 H         4.092963         1.863374        -0.526367
 H         4.360875        -0.544617        -1.954964
 H         5.270629        -0.422598        -0.393720
 H         3.771412        -2.083423         0.498616
 H         4.055900         0.198269         1.875247
