19
Iteration:  2549charge 0 multiplicity 1
 C        -0.112807        -0.020239        -0.142411
 C         1.421896         0.061931         0.042166
 C         2.156616         1.188934        -0.816268
 C         3.625218         0.941294        -0.444791
 C         4.186474        -0.440819        -0.993871
 C         3.471305        -1.109632         0.175142
 O         2.101566        -1.242202        -0.240319
 C         3.377376         0.256489         0.937149
 O         1.918263         0.360649         1.355585
 H        -0.462178        -0.483998         0.857379
 H        -0.520279         1.022714        -0.211816
 H        -0.225200        -0.576077        -1.091964
 H         1.883170         1.223995        -1.840719
 H         1.877259         2.167628        -0.498136
 H         4.141585         1.880981        -0.428351
 H         3.813447        -0.865733        -1.989949
 H         5.285751        -0.432743        -0.973374
 H         3.913156        -2.014303         0.659983
 H         4.185117         0.470375         1.676418
