19
Iteration:  1905charge 0 multiplicity 1
 C        -0.061208        -0.075328        -0.051553
 C         1.439105         0.092046         0.042436
 C         2.116345         1.158912        -0.922594
 C         3.661241         0.926098        -0.450189
 C         4.299251        -0.408011        -0.943755
 C         3.427605        -1.098753         0.150140
 O         2.021854        -1.204175        -0.261524
 C         3.341801         0.237662         0.942575
 O         1.957504         0.407463         1.340175
 H        -0.429188        -0.937802         0.567115
 H        -0.383023         0.957490         0.277598
 H        -0.233928        -0.395433        -1.079347
 H         1.903618         0.782703        -1.977760
 H         1.579312         2.180370        -0.781050
 H         4.044788         1.964264        -0.287753
 H         4.056008        -0.782509        -2.014590
 H         5.317966        -0.431550        -0.583126
 H         3.525335        -2.122813         0.665997
 H         3.984855         0.371601         1.835091
