19
Iteration:  1782
 C        -0.083761        -0.022622         0.076242
 C         1.473363         0.067473        -0.009684
 C         2.179775         1.109937        -0.964857
 C         3.652403         1.038300        -0.336211
 C         4.267835        -0.421451        -0.902261
 C         3.383834        -1.091396         0.133799
 O         2.016446        -1.286190        -0.338531
 C         3.318375         0.252939         0.975711
 O         1.949539         0.417459         1.247256
 H        -0.312680        -0.466445         1.053844
 H        -0.640884         0.890254         0.051336
 H        -0.406539        -0.635450        -0.774031
 H         2.151115         0.800280        -2.095561
 H         1.860411         2.203355        -0.889695
 H         4.214584         1.901630        -0.311786
 H         3.992264        -0.730587        -1.886316
 H         5.326758        -0.582166        -0.597069
 H         3.682362        -2.031821         0.572078
 H         4.095673         0.182230         1.745765
