19
Iteration:  3806charge 0 multiplicity 1
 C        -0.055941        -0.061263        -0.147915
 C         1.487183         0.034374         0.018178
 C         2.170357         1.150331        -0.831977
 C         3.633799         0.991754        -0.448702
 C         4.198061        -0.365832        -0.961702
 C         3.370170        -1.148076         0.155673
 O         2.056594        -1.237014        -0.258717
 C         3.303351         0.176086         0.935404
 O         1.986728         0.453002         1.400854
 H        -0.253275        -1.105823         0.300480
 H        -0.475218         0.850581         0.361909
 H        -0.383181        -0.001887        -1.182403
 H         2.064357         1.068859        -1.921861
 H         1.781959         2.105502        -0.510434
 H         4.154509         1.963386        -0.379534
 H         3.832853        -0.536757        -2.089373
 H         5.307382        -0.417793        -0.745664
 H         3.644096        -2.122393         0.629170
 H         4.073008         0.239410         1.725320
