19
Iteration:   889
 C         0.028138         0.013189        -0.065051
 C         1.450126        -0.016725        -0.009982
 C         2.142897         1.116480        -0.910360
 C         3.616223         0.997917        -0.387211
 C         4.187183        -0.352535        -0.907826
 C         3.435357        -1.134800         0.176745
 O         1.998235        -1.322949        -0.252039
 C         3.329625         0.251602         0.943950
 O         1.976860         0.477527         1.269916
 H        -0.371133        -0.914415         0.543257
 H        -0.297825         0.865742         0.411652
 H        -0.278932         0.041613        -1.111641
 H         1.941776         0.665696        -1.961199
 H         1.662394         2.086151        -0.807728
 H         4.280549         1.991269        -0.415474
 H         4.037506        -0.663063        -1.953819
 H         5.293322        -0.442966        -0.577179
 H         3.678939        -2.032279         0.708129
 H         3.898976         0.255277         1.878552
