19
Iteration:   671
 C        -0.110663         0.062079        -0.090111
 C         1.388874        -0.028154         0.001512
 C         2.167983         1.027706        -0.848598
 C         3.593935         0.982094        -0.371872
 C         4.326289        -0.410214        -0.973574
 C         3.405356        -1.123302         0.079325
 O         2.063776        -1.257367        -0.264980
 C         3.333550         0.294031         0.900339
 O         1.955160         0.401666         1.413229
 H        -0.574871        -0.614018         0.747150
 H        -0.176003         1.084455         0.125172
 H        -0.643409         0.114222        -1.111195
 H         2.180274         0.738804        -2.002881
 H         1.669124         2.022062        -0.721849
 H         4.163720         2.046313        -0.318887
 H         4.133157        -0.659449        -2.011353
 H         5.432322        -0.478565        -0.763492
 H         3.896978        -1.839693         0.691224
 H         4.072039         0.446758         1.718110
