19
Iteration:   848
 C        -0.108227        -0.149030         0.071936
 C         1.445802         0.102653         0.021539
 C         2.129375         1.138915        -0.933935
 C         3.706529         0.973847        -0.428405
 C         4.342548        -0.469944        -0.832512
 C         3.336132        -1.074575         0.177963
 O         2.007302        -1.169379        -0.446655
 C         3.319886         0.223581         0.965715
 O         1.965695         0.460272         1.287979
 H        -0.476703        -0.797928         0.884278
 H        -0.537800         0.802225         0.360738
 H        -0.489290        -0.522182        -0.840675
 H         2.217695         0.742815        -1.919692
 H         1.680860         2.200970        -0.927540
 H         4.459861         1.809019        -0.463223
 H         4.243410        -0.914079        -1.843137
 H         5.397458        -0.430631        -0.565273
 H         3.604653        -2.013972         0.652459
 H         3.987334         0.358321         1.771614
