19
Iteration:  3958
 C        -0.070328        -0.112909        -0.095809
 C         1.502506         0.075358         0.035831
 C         2.147865         1.140642        -0.841504
 C         3.701864         0.928842        -0.374998
 C         4.246743        -0.361259        -0.955623
 C         3.351179        -1.096582         0.042040
 O         1.945492        -1.223324        -0.271267
 C         3.350176         0.225335         0.937641
 O         1.954684         0.440635         1.369288
 H        -0.424866        -0.982974         0.602690
 H        -0.476508         0.777563         0.423251
 H        -0.239476        -0.333979        -1.154718
 H         2.083959         0.936673        -1.925214
 H         1.926574         2.150494        -0.476004
 H         4.211157         1.900303        -0.357412
 H         4.261946        -0.428019        -2.089453
 H         5.225316        -0.537930        -0.670677
 H         3.866109        -1.998728         0.490563
 H         4.118512         0.275908         1.703833
