19
Iteration:  3003
 C        -0.060029        -0.034717        -0.085654
 C         1.402556         0.140489         0.080336
 C         2.147217         1.164526        -0.804968
 C         3.593019         0.937607        -0.383166
 C         4.338015        -0.454272        -0.896110
 C         3.385646        -1.123103         0.113904
 O         2.030345        -1.164484        -0.375707
 C         3.347809         0.177005         0.935519
 O         1.984557         0.385474         1.334155
 H        -0.230306        -1.005204         0.410161
 H        -0.725941         0.774693         0.151547
 H        -0.159953        -0.208005        -1.158428
 H         1.926432         0.835247        -1.815058
 H         1.691800         2.160666        -0.744633
 H         4.003190         1.932872        -0.426608
 H         4.006264        -0.741904        -1.973206
 H         5.414107        -0.456644        -0.649871
 H         3.552128        -1.997907         0.711836
 H         4.156818         0.310480         1.727027
