19
Iteration:   513
 C         0.027106        -0.108993        -0.090717
 C         1.480913         0.067365         0.005356
 C         2.157312         1.149980        -0.861181
 C         3.620303         0.986166        -0.390588
 C         4.155637        -0.427817        -0.957346
 C         3.331531        -1.056904         0.145810
 O         1.964637        -1.209584        -0.290467
 C         3.382250         0.339001         0.966543
 O         2.012863         0.357588         1.362716
 H        -0.264661        -1.113097         0.182056
 H        -0.461540         0.790175         0.399189
 H        -0.288954        -0.043149        -1.104233
 H         1.922114         0.798267        -1.834466
 H         1.775634         2.174357        -0.647882
 H         4.302896         1.766421        -0.587532
 H         4.006362        -0.879149        -1.982906
 H         5.193366        -0.576442        -0.603088
 H         3.869298        -2.017556         0.486216
 H         4.163941         0.179711         1.810887
