19
Iteration:  2368charge 0 multiplicity 1
 C        -0.121501         0.100095         0.106399
 C         1.419937         0.078588        -0.001464
 C         2.183190         1.132623        -0.922977
 C         3.593867         0.957205        -0.424612
 C         4.312032        -0.359419        -0.855901
 C         3.453179        -1.115914         0.141997
 O         2.088787        -1.277170        -0.386811
 C         3.279099         0.239044         0.966985
 O         1.943999         0.275041         1.255914
 H        -0.379928        -0.454241         0.993702
 H        -0.474531         1.123330         0.057299
 H        -0.492874        -0.333692        -0.801512
 H         1.956404         0.692703        -1.953056
 H         1.590475         2.046186        -0.562207
 H         4.159305         1.951016        -0.484336
 H         4.128565        -0.676538        -1.870943
 H         5.466375        -0.301577        -0.689905
 H         3.896281        -1.998209         0.547853
 H         3.910860         0.419596         1.811508
