19
Iteration:   643
 C         0.029505        -0.047433        -0.102978
 C         1.495199         0.089609        -0.008661
 C         2.164733         1.165367        -0.918756
 C         3.629776         1.035686        -0.424500
 C         4.051477        -0.380390        -0.876102
 C         3.392436        -1.158199         0.103480
 O         2.054008        -1.229379        -0.178193
 C         3.351857         0.184235         1.004308
 O         1.971202         0.352152         1.277664
 H        -0.419235        -0.532576         0.811895
 H        -0.413248         1.029260        -0.147011
 H        -0.248501        -0.500563        -1.013346
 H         2.095083         1.002531        -1.946391
 H         1.741939         2.179152        -0.682691
 H         4.308884         1.785455        -0.626332
 H         3.791945        -0.556474        -1.961641
 H         5.132107        -0.519587        -0.787021
 H         4.029049        -1.979867         0.563192
 H         3.920578         0.286742         1.965059
