19
Iteration:   324charge 0 multiplicity 1
 C        -0.024798         0.161093         0.052749
 C         1.462659         0.046982        -0.059856
 C         2.157854         1.045419        -0.983452
 C         3.584035         0.954152        -0.409308
 C         4.247106        -0.289205        -0.966405
 C         3.436069        -1.040538         0.098720
 O         2.079001        -1.311568        -0.239098
 C         3.269647         0.212226         1.025805
 O         1.913147         0.283950         1.292071
 H        -0.263705        -0.808676         0.591762
 H        -0.268115         0.975453         0.695802
 H        -0.661983         0.049460        -0.855424
 H         2.115962         0.823613        -2.072465
 H         1.703829         1.985715        -0.677132
 H         4.308715         1.730515        -0.605712
 H         4.316593        -0.758605        -1.943061
 H         5.255943        -0.165867        -0.449862
 H         3.888665        -2.034616         0.572776
 H         3.857920         0.386126         1.878024
