19
Iteration:  1041
 C        -0.068476         0.076003        -0.208409
 C         1.460363         0.026522         0.040883
 C         2.176197         1.124642        -0.866995
 C         3.563991         0.937219        -0.425479
 C         4.255539        -0.360103        -1.003310
 C         3.489963        -1.140709         0.081086
 O         1.999172        -1.222623        -0.122090
 C         3.349179         0.253379         0.974706
 O         1.933493         0.328920         1.378743
 H        -0.365549        -0.797426         0.606759
 H        -0.320247         1.108894         0.090158
 H        -0.395896        -0.170341        -1.237682
 H         2.012937         0.766377        -1.954327
 H         1.639217         2.013826        -0.703623
 H         4.090156         1.935527        -0.197989
 H         4.175701        -0.656830        -2.041106
 H         5.363313        -0.266468        -0.783946
 H         3.873929        -2.150539         0.307180
 H         4.002157         0.338014         1.791544
