19
Iteration:  2382charge 0 multiplicity 1
 C        -0.079426        -0.028878         0.029659
 C         1.421934         0.043337        -0.013783
 C         2.139088         1.146849        -0.899851
 C         3.633234         0.943124        -0.402158
 C         4.290376        -0.338428        -0.941899
 C         3.471493        -1.135637         0.149834
 O         2.016885        -1.236166        -0.318088
 C         3.359489         0.196530         0.966183
 O         1.910610         0.384571         1.286675
 H        -0.521479        -0.549629         0.853983
 H        -0.581445         0.947318         0.313437
 H        -0.611137        -0.463166        -0.888483
 H         2.091658         1.305030        -1.986266
 H         1.996157         2.209747        -0.746363
 H         4.285763         1.859266        -0.365503
 H         4.259823        -0.683208        -2.018539
 H         5.366494        -0.378778        -0.577943
 H         3.732759        -2.168902         0.558755
 H         4.026791         0.448064         1.785221
