19
Iteration:  1129charge 0 multiplicity 1
 C        -0.046871         0.070106         0.004484
 C         1.424994        -0.011299         0.006957
 C         2.112631         1.022155        -0.892253
 C         3.612254         0.941961        -0.384334
 C         4.354782        -0.356029        -0.883220
 C         3.370294        -1.076576         0.080643
 O         2.026309        -1.266166        -0.409634
 C         3.354640         0.234786         1.031052
 O         1.984431         0.435163         1.308703
 H        -0.574446        -0.640490         0.733152
 H        -0.328551         1.080970         0.514746
 H        -0.540512        -0.114706        -0.949333
 H         2.061131         0.620037        -1.929739
 H         1.567360         1.998160        -0.862213
 H         4.069953         1.952433        -0.224082
 H         4.219833        -0.511403        -1.953814
 H         5.412159        -0.369166        -0.515223
 H         3.529102        -2.083477         0.409408
 H         3.945064         0.287909         1.911064
