19
Iteration:  3918
 C         0.016550        -0.011230        -0.097224
 C         1.409632         0.033868         0.035772
 C         2.152630         1.200306        -0.856415
 C         3.575534         0.924687        -0.364025
 C         4.152064        -0.372499        -0.956824
 C         3.473871        -1.143623         0.152255
 O         2.103429        -1.235466        -0.318386
 C         3.378820         0.231356         0.937155
 O         1.901451         0.380827         1.361156
 H        -0.321926        -0.552236         0.825224
 H        -0.276717         1.043801         0.075237
 H        -0.353934        -0.442087        -1.077731
 H         1.917269         1.194001        -1.928393
 H         1.665973         2.161822        -0.581344
 H         4.366743         1.774049        -0.403389
 H         3.813726        -0.688251        -1.990262
 H         5.309885        -0.526142        -1.126476
 H         3.680728        -2.140418         0.538639
 H         3.933858         0.320936         1.863642
