19
Iteration:  3805
 C        -0.048396        -0.058265        -0.153868
 C         1.485019         0.021702         0.023168
 C         2.161441         1.142971        -0.832582
 C         3.640183         1.002574        -0.444794
 C         4.193941        -0.367224        -0.956456
 C         3.372859        -1.147982         0.146041
 O         2.049063        -1.236209        -0.259507
 C         3.299267         0.174261         0.936132
 O         1.995789         0.456838         1.406987
 H        -0.284748        -1.099612         0.295282
 H        -0.520823         0.852963         0.378763
 H        -0.395753        -0.009672        -1.219299
 H         2.065380         1.072382        -1.908938
 H         1.855626         2.105083        -0.578022
 H         4.132422         1.962118        -0.362992
 H         3.850065        -0.525710        -2.090579
 H         5.307361        -0.420881        -0.777674
 H         3.663987        -2.106235         0.654686
 H         4.080459         0.250246         1.727286
