19
Iteration:  1143
 C        -0.071686         0.097180         0.010604
 C         1.443756         0.044259        -0.010772
 C         2.156264         1.021024        -0.967989
 C         3.608602         0.988770        -0.320819
 C         4.275885        -0.287895        -0.945036
 C         3.477850        -1.141985         0.128996
 O         2.046266        -1.260407        -0.274000
 C         3.272035         0.137064         0.941699
 O         1.928189         0.369384         1.321609
 H        -0.500612        -0.566808         0.694576
 H        -0.305606         1.244749         0.130826
 H        -0.349579        -0.099437        -1.078067
 H         2.008949         0.882187        -1.974755
 H         1.806670         2.066402        -0.645720
 H         4.189334         2.009052        -0.440558
 H         4.041231        -0.595231        -2.008221
 H         5.342415        -0.424896        -0.796729
 H         3.934428        -1.963995         0.603867
 H         4.008361         0.223995         1.800068
