19
Iteration:   541charge 0 multiplicity 1
 C        -0.160573         0.066099        -0.025074
 C         1.390252         0.090840        -0.000744
 C         2.186453         1.079898        -0.940952
 C         3.559113         0.903140        -0.349127
 C         4.308021        -0.280280        -0.954931
 C         3.474181        -1.207888         0.070586
 O         2.060913        -1.311201        -0.220322
 C         3.362630         0.248779         0.988117
 O         1.969600         0.429308         1.325763
 H        -0.690021        -0.869189         0.485590
 H        -0.532118         0.894531         0.508663
 H        -0.476003         0.078584        -1.137011
 H         1.868782         0.775499        -1.973058
 H         1.879874         2.115337        -0.806500
 H         4.177900         1.828816        -0.369384
 H         4.163099        -0.555937        -1.984061
 H         5.395235        -0.346299        -0.722465
 H         3.980964        -2.175397         0.129464
 H         4.026018         0.382616         1.817644
