19
Iteration:   600charge 0 multiplicity 1
 C        -0.167007        -0.085707         0.012409
 C         1.401202         0.091272         0.036712
 C         2.171929         1.138582        -0.884482
 C         3.668393         0.961054        -0.427176
 C         4.287622        -0.406510        -0.910307
 C         3.388960        -1.111979         0.098529
 O         2.107081        -1.184971        -0.313561
 C         3.357276         0.201075         0.982143
 O         1.956189         0.450362         1.277031
 H        -0.477607        -0.626835         0.897065
 H        -0.627327         0.943520        -0.005845
 H        -0.457667        -0.535217        -0.887891
 H         1.954008         0.788546        -1.839111
 H         1.726311         2.143854        -0.723948
 H         4.183181         1.877294        -0.479768
 H         4.285300        -0.886491        -1.929476
 H         5.281031        -0.528855        -0.449828
 H         3.573045        -2.232887         0.265764
 H         3.972952         0.191894         1.926112
