19
Iteration:  4744
 C        -0.070776        -0.060943        -0.134779
 C         1.450744         0.081503         0.118819
 C         2.129478         1.165067        -0.884962
 C         3.597644         1.004052        -0.334265
 C         4.184638        -0.387073        -0.959690
 C         3.346602        -1.138899         0.126786
 O         2.023839        -1.225362        -0.284181
 C         3.398053         0.198118         0.946631
 O         2.014823         0.396281         1.355536
 H        -0.456793        -1.032175         0.199272
 H        -0.493540         0.887834         0.168391
 H        -0.024307        -0.172934        -1.172215
 H         2.012826         1.113192        -2.008716
 H         1.807792         2.145425        -0.585417
 H         4.362737         1.705573        -0.608299
 H         4.192334        -0.680781        -1.971059
 H         5.392126        -0.362291        -0.742582
 H         3.774471        -2.113674         0.349586
 H         4.094066         0.261991         1.780602
