19
Iteration:   891
 C         0.011007         0.018015        -0.078695
 C         1.478482        -0.028522        -0.026941
 C         2.146426         1.092393        -0.898153
 C         3.608787         1.004617        -0.405603
 C         4.167680        -0.341718        -0.903953
 C         3.459642        -1.125069         0.193217
 O         1.989299        -1.326279        -0.252089
 C         3.337093         0.255129         0.960390
 O         1.985739         0.476803         1.265295
 H        -0.431846        -0.829260         0.501604
 H        -0.288275         0.908502         0.460568
 H        -0.263566         0.039025        -1.088899
 H         1.978767         0.655196        -1.893044
 H         1.631690         2.116829        -0.757718
 H         4.259166         1.984669        -0.429375
 H         3.989187        -0.585294        -1.982419
 H         5.229792        -0.507072        -0.589745
 H         3.668555        -2.056416         0.688307
 H         3.839850         0.194592         1.879446
