19
Iteration:   780
 C        -0.012728         0.088090        -0.168620
 C         1.429367         0.032302         0.024055
 C         2.160107         1.031570        -0.833079
 C         3.571079         0.953786        -0.444872
 C         4.188618        -0.287889        -0.979449
 C         3.422917        -1.137464         0.143525
 O         2.004089        -1.280358        -0.222171
 C         3.394466         0.223341         1.028415
 O         1.987509         0.399807         1.356900
 H        -0.565713        -0.567416         0.584662
 H        -0.344829         1.041780        -0.062478
 H        -0.100990        -0.439870        -1.141708
 H         2.007127         0.595011        -1.919482
 H         1.677898         2.037993        -0.852934
 H         4.176164         1.985967        -0.474464
 H         3.978458        -0.570521        -2.008673
 H         5.314331        -0.322953        -0.849656
 H         3.801016        -2.082982         0.505515
 H         4.065825         0.392746         1.916516
