19
Iteration:   450charge 0 multiplicity 1
 C        -0.073766         0.074171         0.049590
 C         1.495954         0.100482         0.033754
 C         2.194678         1.007826        -0.956497
 C         3.614650         1.008240        -0.450295
 C         4.250308        -0.227084        -0.842968
 C         3.397333        -1.146251         0.120330
 O         1.934255        -1.294229        -0.355303
 C         3.353682         0.220874         0.979674
 O         2.002080         0.270267         1.314769
 H        -0.500975        -0.369686         0.856747
 H        -0.645855         1.133630         0.186216
 H        -0.308785        -0.394682        -0.865276
 H         2.098988         0.605295        -1.976997
 H         1.743938         2.036232        -0.985438
 H         4.154515         2.018372        -0.439005
 H         4.361382        -0.371215        -1.933162
 H         5.245021        -0.042908        -0.520751
 H         3.677473        -2.083330         0.427495
 H         4.119281         0.211467         1.779841
