19
Iteration:   501
 C        -0.070717        -0.108440        -0.093128
 C         1.463710         0.113434         0.026705
 C         2.196179         1.199122        -0.870819
 C         3.630340         0.933793        -0.463767
 C         4.132279        -0.433428        -0.924407
 C         3.391635        -1.153627         0.125926
 O         2.064439        -1.230299        -0.313587
 C         3.364526         0.299428         1.022310
 O         1.993471         0.396997         1.368112
 H        -0.321209        -1.053172         0.488266
 H        -0.637965         0.601989         0.469866
 H        -0.357317        -0.133009        -1.138324
 H         2.103093         1.171147        -1.938492
 H         1.844895         2.198935        -0.573109
 H         4.208107         1.798025        -0.476798
 H         3.789616        -0.651473        -1.959655
 H         5.243305        -0.519309        -0.916475
 H         3.597594        -2.221389         0.547989
 H         4.033215         0.764978         1.837413
