19
Iteration:   360charge 0 multiplicity 1
 C        -0.126330        -0.075389        -0.111415
 C         1.412731         0.148337         0.068065
 C         2.171001         1.089447        -0.776518
 C         3.619573         0.941687        -0.391825
 C         4.201889        -0.400173        -1.017787
 C         3.409257        -1.072337         0.126351
 O         2.061895        -1.267136        -0.304559
 C         3.340954         0.173653         0.958753
 O         2.020764         0.503806         1.339312
 H        -0.296559        -1.061349         0.433446
 H        -0.803112         0.672962         0.118573
 H        -0.018424        -0.133973        -1.201748
 H         1.954628         0.854839        -1.796197
 H         1.751484         2.090983        -0.653957
 H         4.232770         1.772246        -0.255410
 H         4.041984        -0.587962        -2.082559
 H         5.267536        -0.384485        -0.909481
 H         3.933202        -1.888368         0.685138
 H         3.986889         0.048031         1.925817
