19
Iteration:  3463charge 0 multiplicity 1
 C        -0.086260        -0.052051         0.072580
 C         1.441452         0.079025        -0.044269
 C         2.140067         1.213957        -0.911896
 C         3.607745         0.863718        -0.436411
 C         4.318387        -0.403203        -0.849833
 C         3.413695        -1.146219         0.178198
 O         2.074283        -1.213080        -0.423634
 C         3.250504         0.229697         0.946866
 O         1.959565         0.431180         1.323735
 H        -0.619286        -0.795089         0.850740
 H        -0.567655         0.810498         0.552083
 H        -0.478906        -0.306096        -0.938926
 H         1.998176         1.092065        -2.028434
 H         1.966227         2.271999        -0.616267
 H         4.214852         1.799232        -0.578689
 H         4.483164        -0.734695        -1.938813
 H         5.419760        -0.608855        -0.431937
 H         3.749595        -2.094258         0.566749
 H         3.985824         0.484813         1.777544
