19
Iteration:  2146charge 0 multiplicity 1
 C        -0.047962        -0.137699        -0.143641
 C         1.482182         0.111794         0.094089
 C         2.187106         1.171582        -0.896743
 C         3.722727         0.962194        -0.356712
 C         4.133300        -0.357173        -1.000391
 C         3.327139        -1.089546         0.118586
 O         2.004245        -1.235711        -0.240350
 C         3.386903         0.229029         1.010628
 O         1.982846         0.406843         1.359326
 H        -0.663803        -0.677383         0.532248
 H        -0.629654         0.802416        -0.205362
 H        -0.174312        -0.740080        -1.091009
 H         2.176202         1.083188        -1.995171
 H         1.741487         2.264518        -0.657201
 H         4.344251         1.790928        -0.508267
 H         3.952861        -0.570122        -2.135031
 H         5.202543        -0.622660        -0.864682
 H         3.642322        -2.153013         0.354217
 H         4.041278         0.233094         1.852201
