19
Iteration:   591charge 0 multiplicity 1
 C        -0.064684        -0.018974         0.036900
 C         1.444984         0.066038        -0.023132
 C         2.150661         1.153299        -0.955239
 C         3.563139         0.970355        -0.415173
 C         4.299427        -0.419116        -0.881345
 C         3.394032        -1.123496         0.135480
 O         2.010662        -1.195760        -0.352285
 C         3.337729         0.213275         0.995919
 O         1.985295         0.364793         1.321751
 H        -0.323302        -0.547129         0.856692
 H        -0.583448         0.993117         0.215626
 H        -0.420354        -0.500532        -0.823141
 H         2.110239         0.804355        -1.986642
 H         1.621790         2.120160        -0.908781
 H         4.319651         1.759662        -0.447848
 H         4.432426        -0.701334        -1.960866
 H         5.292167        -0.382094        -0.425944
 H         3.860145        -2.023118         0.511259
 H         3.970843         0.502636         1.819362
