19
Iteration:  2754
 C        -0.047093        -0.076713         0.072963
 C         1.431650         0.112326        -0.029194
 C         2.090885         1.127532        -0.911228
 C         3.688301         0.931720        -0.395164
 C         4.294685        -0.390200        -0.818245
 C         3.381256        -1.168144         0.076751
 O         1.990305        -1.139504        -0.331273
 C         3.282847         0.231593         0.987749
 O         1.986073         0.418702         1.231167
 H        -0.436340        -0.644029         0.924246
 H        -0.684382         0.771940         0.136096
 H        -0.283985        -0.780538        -0.713760
 H         2.153453         0.916686        -2.019480
 H         1.982365         2.285031        -0.757573
 H         4.346665         1.786038        -0.411348
 H         4.524652        -0.798342        -1.873054
 H         5.277750        -0.516539        -0.390104
 H         3.695187        -2.284903         0.221568
 H         4.048432         0.414731         1.762360
