19
Iteration:  4702charge 0 multiplicity 1
 C        -0.130544        -0.011471         0.050986
 C         1.465529         0.040366        -0.023637
 C         2.242875         1.158477        -0.908891
 C         3.641668         0.993693        -0.355997
 C         4.195904        -0.327350        -0.886281
 C         3.397678        -1.155272         0.097959
 O         2.063841        -1.301172        -0.344971
 C         3.378134         0.221872         0.957078
 O         1.934756         0.354938         1.266077
 H        -0.663072        -0.614981         0.851396
 H        -0.233166         1.093335         0.197709
 H        -0.728072        -0.024503        -0.827323
 H         2.175862         0.953916        -1.967598
 H         1.767837         2.134130        -0.808460
 H         4.049206         1.960821        -0.174588
 H         4.012070        -0.534440        -1.926760
 H         5.408444        -0.389725        -0.710393
 H         3.640476        -2.002237         0.713499
 H         4.022715         0.338496         1.819338
