19
Iteration:  3745
 C        -0.034918         0.065698         0.067619
 C         1.419752        -0.030523        -0.065317
 C         2.122894         1.085484        -0.888104
 C         3.615871         0.999870        -0.380828
 C         4.279549        -0.355995        -0.887991
 C         3.392568        -1.156333         0.175009
 O         2.057987        -1.271986        -0.381757
 C         3.358219         0.262903         0.993536
 O         1.942719         0.384337         1.214591
 H        -0.401078        -0.605277         0.845923
 H        -0.445118         0.993628         0.437420
 H        -0.546358        -0.322118        -0.845831
 H         2.218518         0.930345        -2.004428
 H         1.693353         2.136530        -0.474344
 H         4.168587         1.984733        -0.341925
 H         4.246049        -0.596214        -1.907442
 H         5.352100        -0.359998        -0.653635
 H         3.680502        -2.092510         0.631823
 H         3.896853         0.502169         1.894895
