19
Iteration:   946
 C        -0.052235        -0.046788        -0.085642
 C         1.480235         0.049650        -0.005559
 C         2.127083         1.064871        -0.927712
 C         3.594958         0.939596        -0.443506
 C         4.229052        -0.351116        -0.868970
 C         3.386485        -1.108736         0.138082
 O         2.006533        -1.210314        -0.286160
 C         3.363529         0.254546         1.009206
 O         2.031632         0.437357         1.331810
 H        -0.337123        -0.827352         0.563074
 H        -0.574922         0.909660         0.199358
 H        -0.326033        -0.385447        -1.054905
 H         1.956386         0.908239        -1.970500
 H         1.827928         2.127426        -0.571395
 H         4.230954         1.879845        -0.633958
 H         4.183889        -0.788667        -1.909894
 H         5.270048        -0.428384        -0.516795
 H         3.384857        -2.098523         0.550884
 H         3.948698         0.277081         1.908173
