19
Iteration:  4194charge 0 multiplicity 1
 C        -0.072828        -0.013490        -0.137747
 C         1.441498         0.109996         0.022668
 C         2.160510         1.236298        -0.819279
 C         3.585899         0.917540        -0.416844
 C         4.180352        -0.407480        -0.914556
 C         3.466761        -1.146522         0.188112
 O         2.065946        -1.224554        -0.277253
 C         3.341437         0.176640         0.954429
 O         1.999176         0.367140         1.281151
 H        -0.441267        -0.945080         0.421352
 H        -0.675774         0.800938         0.354240
 H        -0.365270        -0.135604        -1.184552
 H         1.722902         1.061847        -1.763754
 H         1.790591         2.138692        -0.396210
 H         4.214939         1.874889        -0.408455
 H         3.881310        -0.766889        -1.897410
 H         5.333000        -0.296827        -0.811209
 H         3.809961        -2.120448         0.553221
 H         4.169980         0.457425         1.634055
