19
Iteration:  3026charge 0 multiplicity 1
 C        -0.100437         0.009027         0.039423
 C         1.406037         0.060825        -0.025991
 C         2.200425         1.119426        -0.993231
 C         3.674682         0.906025        -0.390444
 C         4.312223        -0.301826        -0.855190
 C         3.412881        -1.109744         0.082345
 O         1.986106        -1.191584        -0.333981
 C         3.307491         0.188320         1.027045
 O         1.960089         0.316777         1.318333
 H        -0.407844        -0.874159         0.583277
 H        -0.338590         1.020412         0.486363
 H        -0.565736         0.099558        -0.937427
 H         1.979042         0.857572        -2.031870
 H         1.771949         2.074392        -0.844704
 H         4.129236         1.922590        -0.457826
 H         4.447014        -0.492009        -2.009662
 H         5.214237        -0.418308        -0.270526
 H         3.720675        -2.147160         0.419486
 H         4.071299         0.313241         1.788944
