19
Iteration:   806
 C        -0.149156         0.035187        -0.013364
 C         1.388326        -0.013403        -0.014359
 C         2.211571         1.131068        -0.938070
 C         3.674077         1.041955        -0.394064
 C         4.307596        -0.394789        -0.971228
 C         3.419124        -1.071819         0.119808
 O         2.046721        -1.280571        -0.211222
 C         3.354737         0.221577         0.993334
 O         1.931685         0.359264         1.296119
 H        -0.660492        -0.439236         0.838934
 H        -0.411519         1.194266        -0.131100
 H        -0.420504        -0.504818        -0.913101
 H         2.132861         0.889046        -1.951311
 H         1.736463         2.186435        -0.865902
 H         4.119036         1.990312        -0.339040
 H         4.092908        -0.636791        -2.030640
 H         5.312526        -0.689425        -0.787975
 H         3.776185        -2.017751         0.625964
 H         3.916255         0.196029         1.898486
