19
Iteration:     3
 C        -0.035307        -0.035256         0.027693
 C         1.447669         0.073110         0.011353
 C         2.162709         1.069655        -0.949431
 C         3.596347         0.939508        -0.463956
 C         4.235633        -0.392388        -0.913372
 C         3.409124        -1.084321         0.143878
 O         2.036073        -1.246150        -0.233941
 C         3.340258         0.270883         0.945320
 O         1.972214         0.436200         1.285785
 H        -0.348179        -0.773938         0.818207
 H        -0.448344         0.870601         0.232095
 H        -0.393583        -0.387628        -0.966883
 H         2.047142         0.779306        -1.968981
 H         1.770389         2.061321        -0.786424
 H         4.162612         1.832278        -0.512514
 H         3.975948        -0.694691        -1.930932
 H         5.250021        -0.454269        -0.651243
 H         3.619645        -2.007188         0.642565
 H         4.077674         0.468588         1.761599
