19
Iteration:  1768
 C        -0.072039         0.036576        -0.031063
 C         1.428913         0.041052        -0.075339
 C         2.192133         1.072201        -0.882933
 C         3.604586         0.926086        -0.366291
 C         4.203005        -0.339358        -0.937877
 C         3.395429        -1.119565         0.177266
 O         2.066288        -1.266065        -0.265581
 C         3.347376         0.215272         0.940488
 O         1.991313         0.412337         1.308069
 H        -0.399501        -0.367467         0.870848
 H        -0.300270         1.143670        -0.133046
 H        -0.587512        -0.646457        -0.739322
 H         2.161442         0.869635        -2.067114
 H         1.543384         2.004781        -0.669354
 H         4.215576         1.893028        -0.271584
 H         3.924806        -0.532458        -2.011244
 H         5.372458        -0.476591        -0.978288
 H         3.842622        -1.983536         0.652797
 H         3.837117         0.591045         1.861033
