19
Iteration:  3044charge 0 multiplicity 1
 C        -0.025674         0.115637         0.104871
 C         1.466444         0.034037        -0.089771
 C         2.195014         1.000278        -0.916916
 C         3.614054         1.045472        -0.279460
 C         4.323114        -0.290514        -0.877615
 C         3.371971        -1.141297         0.117530
 O         2.008935        -1.337974        -0.380511
 C         3.268801         0.203406         0.939780
 O         1.924172         0.383374         1.220795
 H        -0.400631        -0.685977         0.802123
 H        -0.255179         0.955999         0.706444
 H        -0.663359         0.139715        -0.791604
 H         2.379070         0.865998        -1.987134
 H         1.701222         2.108998        -0.763515
 H         4.226744         1.895428        -0.130852
 H         4.161888        -0.580376        -1.916123
 H         5.438894        -0.372218        -0.649508
 H         3.760851        -2.034559         0.461019
 H         3.874498         0.198063         1.918126
