19
Iteration:  3412
 C        -0.125494         0.030105        -0.075195
 C         1.505689         0.018937        -0.032074
 C         2.245936         1.066797        -0.920704
 C         3.633406         0.999700        -0.345483
 C         4.204793        -0.301939        -0.983618
 C         3.396690        -1.125258         0.100932
 O         2.032522        -1.284065        -0.209735
 C         3.356879         0.210449         1.014890
 O         1.933267         0.394736         1.297477
 H        -0.658072        -0.694351         0.491715
 H        -0.289058         0.885251         0.513197
 H        -0.645876         0.001021        -1.015216
 H         2.328338         0.658997        -1.976591
 H         1.724167         2.063470        -0.644905
 H         4.296209         1.855534        -0.235306
 H         3.858572        -0.564335        -2.011295
 H         5.271152        -0.215655        -0.917206
 H         3.798054        -2.154468         0.486093
 H         3.971976         0.432560         1.886413
