19
Iteration:  4996charge 0 multiplicity 1
 C        -0.141220        -0.030287        -0.089849
 C         1.382927         0.111245         0.020366
 C         2.143636         1.210428        -0.866130
 C         3.644522         0.935525        -0.388233
 C         4.325494        -0.423269        -0.945435
 C         3.402223        -1.056703         0.102223
 O         2.032857        -1.190497        -0.298831
 C         3.379204         0.141444         1.015780
 O         2.006996         0.355887         1.315409
 H        -0.557265        -0.840707         0.631411
 H        -0.762831         0.856959         0.236977
 H        -0.229500        -0.382626        -1.155570
 H         1.893084         0.882550        -1.902618
 H         1.691521         2.215716        -0.584162
 H         4.240012         1.935363        -0.471785
 H         4.107428        -0.726872        -1.929942
 H         5.407074        -0.520435        -0.749032
 H         3.728952        -2.001393         0.606695
 H         3.927908         0.104910         1.952412
