19
Iteration:  3151
 C        -0.055005         0.105298         0.025082
 C         1.473937         0.042331        -0.030671
 C         2.217943         1.106343        -0.913310
 C         3.606287         1.069906        -0.315014
 C         4.220353        -0.313531        -0.931916
 C         3.461170        -1.134065         0.084314
 O         2.002162        -1.300641        -0.351658
 C         3.299781         0.119175         1.042384
 O         1.926692         0.345730         1.272161
 H        -0.500827        -0.570553         0.892837
 H        -0.473103         1.140078         0.127608
 H        -0.416587        -0.410256        -0.914134
 H         2.217039         0.869467        -1.969560
 H         1.798275         2.038691        -0.709444
 H         4.307481         1.934998        -0.231552
 H         4.015809        -0.535022        -2.027920
 H         5.325647        -0.526878        -0.693881
 H         3.846006        -2.169289         0.438818
 H         4.043764         0.385908         1.910285
