19
Iteration:  2107
 C        -0.085925         0.104024         0.010035
 C         1.438483        -0.054513        -0.018460
 C         2.150435         1.120983        -0.940941
 C         3.576589         0.970856        -0.441175
 C         4.233032        -0.357215        -0.910962
 C         3.418983        -1.131594         0.102669
 O         2.084921        -1.277523        -0.306876
 C         3.376508         0.226618         1.044845
 O         1.921766         0.366218         1.290306
 H        -0.410608        -0.514927         0.907913
 H        -0.289428         1.144171         0.121448
 H        -0.323019        -0.078466        -1.003983
 H         1.990214         0.920584        -1.984025
 H         1.755859         2.002018        -0.600419
 H         4.310331         1.882543        -0.306600
 H         4.186955        -0.459403        -1.930663
 H         5.291968        -0.420125        -0.579109
 H         3.848289        -2.001595         0.538136
 H         3.954030         0.375991         2.030149
