19
Iteration:   638charge 0 multiplicity 1
 C         0.036822        -0.070869        -0.101242
 C         1.526214         0.086191        -0.046629
 C         2.158956         1.190227        -0.889659
 C         3.638917         1.040023        -0.429150
 C         4.058260        -0.391917        -0.914657
 C         3.350468        -1.160168         0.105061
 O         2.034834        -1.237188        -0.179204
 C         3.350953         0.214734         1.006814
 O         1.975946         0.361118         1.309577
 H        -0.427461        -0.544542         0.811877
 H        -0.414242         0.876057        -0.087481
 H        -0.276264        -0.682261        -1.018813
 H         2.190546         1.012587        -2.029835
 H         1.863617         2.225712        -0.757883
 H         4.362364         1.955947        -0.449639
 H         3.869275        -0.714257        -1.928965
 H         5.150337        -0.476497        -0.757486
 H         3.810098        -2.006869         0.559439
 H         3.972587         0.299307         1.895143
