19
Iteration:  1171charge 0 multiplicity 1
 C        -0.032881        -0.024286        -0.123206
 C         1.468936         0.040351        -0.030870
 C         2.169434         1.170648        -0.855695
 C         3.693154         1.037827        -0.325731
 C         4.136940        -0.384682        -1.018924
 C         3.401489        -1.150436         0.117272
 O         1.989925        -1.287487        -0.246932
 C         3.346552         0.283918         1.038802
 O         1.998466         0.354844         1.319369
 H        -0.546362        -0.562456         0.721025
 H        -0.305524         1.027149        -0.049612
 H        -0.185862        -0.493024        -1.072312
 H         1.925141         1.091859        -1.997685
 H         1.706618         2.116427        -0.479814
 H         4.248735         1.906725        -0.569485
 H         3.838575        -0.696252        -2.013815
 H         5.203669        -0.637383        -0.743997
 H         3.866992        -2.070954         0.613029
 H         3.953161         0.385141         1.901315
