19
Iteration:  3767charge 0 multiplicity 1
 C        -0.039595         0.046162        -0.073579
 C         1.389636         0.053321        -0.008909
 C         2.224373         1.090586        -0.949518
 C         3.578337         0.997065        -0.391023
 C         4.258971        -0.283486        -0.951872
 C         3.442433        -1.124785         0.090554
 O         2.044494        -1.259532        -0.204964
 C         3.309852         0.169342         0.960699
 O         1.954477         0.346927         1.360065
 H        -0.504760        -0.717023         0.516471
 H        -0.427957         0.969043         0.394525
 H        -0.387237        -0.130723        -1.130377
 H         1.936298         0.604174        -1.899284
 H         1.697620         2.119309        -0.648613
 H         4.233351         1.901626        -0.426665
 H         4.118828        -0.502080        -1.976185
 H         5.311007        -0.454360        -0.735279
 H         3.872900        -2.002277         0.557944
 H         3.920890         0.260970         1.837012
