19
Iteration:  1626
 C        -0.088234         0.066690        -0.094087
 C         1.477938         0.046861         0.035000
 C         2.116047         1.054033        -0.934281
 C         3.651786         0.973256        -0.420852
 C         4.256156        -0.306143        -0.932458
 C         3.419988        -1.100782         0.096750
 O         1.992713        -1.219334        -0.221299
 C         3.371226         0.217478         1.019491
 O         1.995359         0.307951         1.336144
 H        -0.656474        -0.634190         0.548036
 H        -0.485032         1.063742         0.254668
 H        -0.554947        -0.092719        -1.056464
 H         2.156893         0.708769        -2.044357
 H         1.565610         2.079615        -0.893564
 H         4.277732         1.839256        -0.499341
 H         4.080464        -0.679705        -1.970320
 H         5.357934        -0.487895        -0.733446
 H         3.678332        -2.033172         0.546814
 H         4.036070         0.227568         1.865786
