19
Iteration:  3879
 C        -0.107881         0.022345         0.032802
 C         1.475377         0.060971         0.010228
 C         2.155257         1.074746        -0.957622
 C         3.645815         1.052349        -0.357389
 C         4.362378        -0.278521        -0.879333
 C         3.347346        -1.179347        -0.006037
 O         1.983939        -1.255188        -0.245513
 C         3.346917         0.157016         0.924148
 O         1.956935         0.345904         1.340241
 H        -0.517705        -0.579929         0.823902
 H        -0.508559         1.062071        -0.019939
 H        -0.586723        -0.380922        -0.905888
 H         2.195804         0.717144        -1.988689
 H         1.702994         2.137965        -0.960416
 H         4.158411         1.947603        -0.155193
 H         4.242933        -0.500853        -1.894082
 H         5.352555        -0.201103        -0.534247
 H         3.715033        -2.130884         0.414888
 H         4.209127         0.385385         1.589774
