19
Iteration:  4555charge 0 multiplicity 1
 C        -0.103759         0.006401         0.027510
 C         1.389979         0.129961         0.045916
 C         2.131353         1.107375        -0.925010
 C         3.638864         0.937603        -0.439874
 C         4.350101        -0.316401        -0.845145
 C         3.421882        -1.157568         0.152847
 O         2.027606        -1.198306        -0.341366
 C         3.301056         0.159604         0.925424
 O         1.973509         0.357999         1.287416
 H        -0.449789        -0.875572         0.520947
 H        -0.480858         0.812980         0.605973
 H        -0.418944        -0.171073        -0.977049
 H         1.910513         1.007266        -1.990234
 H         1.667495         2.107896        -0.845254
 H         4.302526         1.848273        -0.473689
 H         4.516375        -0.649993        -1.927734
 H         5.475815        -0.278266        -0.571694
 H         3.730351        -2.160892         0.487699
 H         3.894902         0.228389         1.817375
