19
Iteration:  1523charge 0 multiplicity 1
 C        -0.084930         0.082290         0.111199
 C         1.472011         0.097771        -0.091325
 C         2.154120         1.064962        -0.978611
 C         3.623622         0.954047        -0.360073
 C         4.284409        -0.296444        -0.867724
 C         3.410561        -1.133029         0.121432
 O         2.036423        -1.338059        -0.321886
 C         3.304448         0.191018         0.991122
 O         1.936408         0.358120         1.268370
 H        -0.502519        -0.545827         0.844572
 H        -0.353703         1.087168         0.438648
 H        -0.598597        -0.105286        -0.886074
 H         2.250041         0.830781        -1.993779
 H         1.926857         2.191600        -0.944409
 H         4.178224         1.962309        -0.237726
 H         4.259596        -0.438768        -2.021633
 H         5.341928        -0.233188        -0.533946
 H         3.636101        -2.221539         0.316321
 H         4.045161         0.442333         1.843950
