19
Iteration:   250charge 0 multiplicity 1
 C        -0.093486        -0.138406        -0.117913
 C         1.429733         0.059013        -0.041561
 C         2.179901         1.209937        -0.823498
 C         3.607435         0.941610        -0.411639
 C         4.143737        -0.431149        -0.985305
 C         3.415299        -1.105034         0.223500
 O         2.011018        -1.243991        -0.231976
 C         3.429632         0.281478         0.976862
 O         2.021647         0.464205         1.297356
 H        -0.461253        -0.863430         0.738712
 H        -0.599058         0.750386        -0.122839
 H        -0.390878        -0.662395        -1.114507
 H         2.029034         1.244900        -1.917640
 H         1.856915         2.185258        -0.443879
 H         4.300069         1.726751        -0.492446
 H         3.879889        -0.678075        -2.004239
 H         5.224302        -0.590597        -0.873155
 H         3.859160        -2.048755         0.618093
 H         4.154672         0.434421         1.808568
