19
Iteration:  1674
 C        -0.087857        -0.038302         0.150458
 C         1.422941         0.067436        -0.115580
 C         2.208558         1.101264        -0.964199
 C         3.675807         0.945563        -0.398654
 C         4.293978        -0.359991        -0.889175
 C         3.439730        -1.073470         0.199269
 O         1.962116        -1.192456        -0.356216
 C         3.284309         0.222619         1.008200
 O         1.976022         0.374997         1.221663
 H        -0.302894        -1.006349         0.623381
 H        -0.405266         0.802962         0.813470
 H        -0.668625        -0.124207        -0.842316
 H         2.128852         1.025800        -2.051867
 H         1.859852         2.067122        -0.726581
 H         4.116890         1.936163        -0.529982
 H         4.214002        -0.877316        -1.811958
 H         5.297273        -0.609482        -0.556924
 H         3.539484        -2.100730         0.652454
 H         4.081659         0.414495         1.776370
