19
Iteration:  4820
 C        -0.084143         0.050323         0.060327
 C         1.418075         0.023213        -0.022184
 C         2.179442         1.059441        -0.929165
 C         3.567017         0.945176        -0.374967
 C         4.408680        -0.334903        -0.927452
 C         3.404395        -1.067537         0.079178
 O         2.000765        -1.206637        -0.346409
 C         3.304397         0.183137         0.951849
 O         1.936173         0.345654         1.365549
 H        -0.478403        -0.715121         0.745350
 H        -0.418651         1.088459         0.035070
 H        -0.302155        -0.209513        -0.972925
 H         1.902960         0.891028        -2.030904
 H         1.821467         2.062376        -0.703171
 H         4.223088         1.797509        -0.195157
 H         4.390644        -0.457579        -1.934388
 H         5.390260        -0.455396        -0.504443
 H         3.735339        -1.987436         0.591039
 H         4.087630         0.279687         1.695927
