19
Iteration:  3450
 C        -0.112693        -0.040108         0.053316
 C         1.395742         0.065903        -0.008374
 C         2.118612         1.115182        -0.939355
 C         3.594569         0.932894        -0.430117
 C         4.329592        -0.392079        -0.807035
 C         3.391367        -1.177834         0.146598
 O         2.018612        -1.140640        -0.398618
 C         3.392067         0.185760         0.939304
 O         1.990579         0.419147         1.299175
 H        -0.228419        -1.026141         0.643056
 H        -0.445104         0.989788         0.411440
 H        -0.585943        -0.092793        -0.954583
 H         2.035847         0.854954        -1.982536
 H         1.705211         2.078431        -0.812869
 H         4.255248         1.856457        -0.388982
 H         4.515636        -0.627275        -1.894033
 H         5.325518        -0.109273        -0.180630
 H         3.554611        -2.142380         0.594747
 H         4.128504         0.313468         1.781891
