19
Iteration:  4684
 C         0.016504         0.070496         0.116819
 C         1.400943         0.077224        -0.080194
 C         2.189578         1.079960        -0.938159
 C         3.614550         0.974322        -0.320961
 C         4.344516        -0.311133        -0.900453
 C         3.422111        -1.093636         0.088160
 O         2.000661        -1.294102        -0.349830
 C         3.264861         0.174647         0.993723
 O         1.935738         0.376753         1.254212
 H        -0.167108        -0.715411         0.908545
 H        -0.652230         0.950385         0.266207
 H        -0.535966        -0.336369        -0.791664
 H         2.035043         0.888130        -2.019089
 H         1.640197         2.054401        -0.664477
 H         4.334239         1.845558        -0.353566
 H         4.178048        -0.540863        -1.994398
 H         5.274799        -0.369111        -0.548317
 H         3.697769        -2.136204         0.420315
 H         3.898191         0.201317         1.878445
