19
Iteration:  4843
 C        -0.103348         0.024401        -0.032393
 C         1.418921         0.104089        -0.040087
 C         2.152697         1.111433        -0.837128
 C         3.605784         1.005302        -0.406741
 C         4.235311        -0.315627        -0.868388
 C         3.392306        -1.201992         0.053300
 O         2.030802        -1.232143        -0.312664
 C         3.420968         0.205735         1.004358
 O         1.964409         0.352509         1.310347
 H        -0.153126        -0.800167         0.728637
 H        -0.592637         1.024693         0.063673
 H        -0.383523        -0.353810        -0.989403
 H         2.180963         0.862863        -1.937442
 H         1.588893         2.061719        -0.778398
 H         4.408835         1.774929        -0.510030
 H         4.220389        -0.470745        -1.891372
 H         5.265023        -0.440502        -0.453670
 H         3.777568        -2.138694         0.488131
 H         4.011191         0.182113         1.925832
