19
Iteration:  2396charge 0 multiplicity 1
 C        -0.072236        -0.122374        -0.037463
 C         1.441823         0.086490        -0.057180
 C         2.186714         1.169056        -0.855163
 C         3.627759         0.932175        -0.382205
 C         4.278449        -0.378690        -0.948799
 C         3.332986        -1.083128         0.084367
 O         2.010798        -1.204476        -0.248275
 C         3.317892         0.194291         0.963000
 O         2.017880         0.457244         1.314447
 H        -0.148716        -1.028236         0.679182
 H        -0.420707         0.894218         0.174996
 H        -0.386592        -0.429490        -1.073713
 H         1.992449         0.868261        -1.842350
 H         1.649940         1.980559        -0.443114
 H         4.185014         1.825373        -0.362030
 H         4.092422        -0.560515        -2.039953
 H         5.296526        -0.452327        -0.715615
 H         3.653757        -2.087546         0.527563
 H         3.988505         0.205344         1.921276
