19
Iteration:  2922
 C        -0.056624         0.085848        -0.033333
 C         1.380235         0.052051        -0.011350
 C         2.112263         1.048896        -0.958503
 C         3.583805         0.926174        -0.385606
 C         4.350771        -0.331804        -0.868276
 C         3.413283        -1.079237         0.100457
 O         2.006942        -1.170445        -0.369222
 C         3.356812         0.175616         1.001399
 O         2.008083         0.297792         1.367236
 H        -0.405865        -0.381092         0.907222
 H        -0.511533         1.086874         0.092363
 H        -0.415375        -0.487957        -0.900656
 H         1.866644         0.655955        -1.977059
 H         1.564626         2.129243        -0.850377
 H         4.097287         1.893619        -0.319004
 H         4.413585        -0.680926        -1.874020
 H         5.449562        -0.271978        -0.443718
 H         3.607993        -2.024050         0.584096
 H         4.128774         0.336815         1.757077
