19
Iteration:   313charge 0 multiplicity 1
 C        -0.069235         0.122749         0.117419
 C         1.424852         0.040378        -0.015610
 C         2.149686         1.053780        -0.955437
 C         3.620298         1.003003        -0.418848
 C         4.313387        -0.323545        -0.875893
 C         3.435875        -1.092436         0.136940
 O         2.114690        -1.341680        -0.316873
 C         3.321281         0.192738         0.937943
 O         1.866908         0.351106         1.246445
 H        -0.451425        -0.678295         0.807377
 H        -0.279250         1.059629         0.627097
 H        -0.621941         0.245886        -0.843380
 H         2.042407         0.737250        -2.024557
 H         1.687270         2.042053        -0.977786
 H         3.944725         2.025688        -0.280329
 H         4.118403        -0.462034        -1.949373
 H         5.433688        -0.484398        -0.736998
 H         3.860364        -2.053933         0.678560
 H         3.929522         0.276981         1.787859
