19
Iteration:  2566
 C        -0.073676         0.001587        -0.157094
 C         1.526108         0.013834         0.040470
 C         2.107565         1.076627        -0.856452
 C         3.590894         0.970943        -0.460471
 C         4.191622        -0.375102        -0.999279
 C         3.432552        -1.045143         0.146132
 O         1.993128        -1.242703        -0.243679
 C         3.350378         0.216380         1.053435
 O         2.042607         0.383610         1.390117
 H        -0.733518        -0.524631         0.464434
 H        -0.333846         1.046258        -0.208482
 H        -0.215665        -0.526316        -1.117530
 H         2.095472         0.791384        -1.961013
 H         1.717934         2.117183        -0.586083
 H         4.361989         1.791391        -0.512810
 H         3.835259        -0.486457        -2.024807
 H         5.290804        -0.391664        -1.015530
 H         3.654930        -2.022146         0.586602
 H         3.973543         0.465737         1.925157
