19
Iteration:   439charge 0 multiplicity 1
 C        -0.073033         0.104660         0.045005
 C         1.381754         0.078161         0.042168
 C         2.124089         1.020627        -0.966714
 C         3.536798         0.992087        -0.375564
 C         4.391728        -0.293695        -0.884610
 C         3.406957        -1.053055         0.045209
 O         2.002833        -1.241100        -0.321834
 C         3.374056         0.139254         0.955540
 O         1.993971         0.280995         1.333219
 H        -0.404790        -0.401735         0.878399
 H        -0.354948         1.241169        -0.065262
 H        -0.482570        -0.380840        -0.799576
 H         2.129411         0.476012        -1.913691
 H         1.655644         2.025613        -1.108219
 H         4.052833         1.995050        -0.346111
 H         4.331184        -0.622731        -1.931524
 H         5.379613        -0.358635        -0.474306
 H         3.742728        -1.931468         0.486433
 H         4.014326         0.285535         1.843964
