19
Iteration:  4381
 C        -0.130678         0.005641        -0.046722
 C         1.430545         0.076229         0.060969
 C         2.107737         1.101516        -0.887011
 C         3.651098         0.972210        -0.443968
 C         4.332083        -0.384253        -0.913516
 C         3.344112        -1.125819         0.134548
 O         2.056987        -1.229320        -0.355312
 C         3.367094         0.181593         0.929564
 O         1.953367         0.388304         1.361640
 H        -0.499601        -0.804571         0.641159
 H        -0.338506         0.944278         0.486087
 H        -0.290417        -0.023614        -1.172301
 H         2.091189         0.894271        -2.004301
 H         1.775192         2.149250        -0.667202
 H         4.192437         1.982470        -0.401668
 H         4.321919        -0.701116        -1.876484
 H         5.294506        -0.362644        -0.388561
 H         3.745767        -2.066980         0.621178
 H         4.036750         0.343861         1.736246
