19
Iteration:  2919charge 0 multiplicity 1
 C        -0.081143         0.084143        -0.005090
 C         1.412613         0.072995         0.014789
 C         2.119673         1.071770        -0.969871
 C         3.577332         0.922291        -0.398688
 C         4.384934        -0.320800        -0.852095
 C         3.381753        -1.095358         0.113803
 O         2.025627        -1.176433        -0.375052
 C         3.330742         0.185142         0.998882
 O         1.997620         0.284873         1.349197
 H        -0.451904        -0.497950         0.855295
 H        -0.534339         1.149732         0.061386
 H        -0.434339        -0.515736        -0.857310
 H         1.895052         0.683369        -2.004635
 H         1.586320         2.082386        -0.828524
 H         4.157460         1.876598        -0.375661
 H         4.417261        -0.671811        -1.890192
 H         5.405955        -0.260081        -0.505690
 H         3.590730        -2.129371         0.627806
 H         4.207447         0.331367         1.593813
