19
Iteration:  2562
 C        -0.050173        -0.006606        -0.156936
 C         1.462247         0.005918         0.051568
 C         2.116388         1.138750        -0.859357
 C         3.608414         0.930240        -0.448369
 C         4.196086        -0.364576        -1.024741
 C         3.477176        -1.054200         0.178168
 O         2.011827        -1.241593        -0.253445
 C         3.315154         0.240437         1.007943
 O         2.045007         0.379799         1.406443
 H        -0.815415        -0.574101         0.500724
 H        -0.387004         1.133645        -0.266324
 H        -0.362619        -0.559210        -1.103900
 H         2.029716         0.814584        -1.918472
 H         1.739901         2.099980        -0.512700
 H         4.426266         1.746247        -0.582411
 H         3.808618        -0.618277        -2.001351
 H         5.317305        -0.504071        -0.996610
 H         3.728603        -2.009086         0.601706
 H         3.828415         0.406441         1.945202
