19
Iteration:  3357charge 0 multiplicity 1
 C        -0.148516        -0.104871        -0.108874
 C         1.486196         0.139585         0.009540
 C         2.115590         1.139321        -0.889915
 C         3.658115         0.916730        -0.408022
 C         4.265013        -0.410646        -0.928160
 C         3.372450        -1.088417         0.137577
 O         2.000549        -1.122473        -0.320699
 C         3.404500         0.182225         1.010110
 O         2.013501         0.380372         1.388347
 H        -0.451098        -0.824087         0.654860
 H        -0.750460         0.730282        -0.191610
 H        -0.305817        -0.561852        -1.071325
 H         1.948951         1.024014        -2.018363
 H         1.688068         2.159281        -0.529190
 H         4.346368         1.755794        -0.519496
 H         4.052275        -0.667050        -1.987387
 H         5.294438        -0.383559        -0.665599
 H         3.742031        -2.088437         0.568789
 H         4.093838         0.274507         1.898417
