19
Iteration:  2441charge 0 multiplicity 1
 C        -0.078360         0.026589        -0.122975
 C         1.457700         0.020365        -0.003224
 C         2.111998         1.115039        -0.872777
 C         3.629124         0.993136        -0.415321
 C         4.201325        -0.387839        -0.977804
 C         3.494407        -1.109797         0.158356
 O         2.058241        -1.217497        -0.201644
 C         3.311418         0.220936         0.986138
 O         1.965673         0.365088         1.323344
 H        -0.363825        -1.018108         0.327824
 H        -0.504287         0.906756         0.389834
 H        -0.458010         0.065249        -1.142274
 H         2.073761         1.004389        -1.926103
 H         1.834928         2.039387        -0.382504
 H         4.073718         1.957187        -0.571041
 H         3.814603        -0.821790        -1.896374
 H         5.253217        -0.558018        -0.971785
 H         3.992170        -2.017744         0.513028
 H         4.092412         0.367294         1.773011
