19
Iteration:   979
 C        -0.067708        -0.091809         0.116882
 C         1.470261         0.153978         0.001504
 C         2.221873         1.151390        -0.976332
 C         3.639546         0.913700        -0.440710
 C         4.328209        -0.385923        -0.888633
 C         3.410749        -1.117207         0.161263
 O         2.025037        -1.188304        -0.339465
 C         3.263897         0.202300         1.027285
 O         1.883496         0.423840         1.207995
 H        -0.123102        -0.693428         0.947013
 H        -0.861653         0.743385         0.161362
 H        -0.477419        -0.653433        -0.672308
 H         2.057990         0.994458        -1.988477
 H         1.928022         2.284398        -0.812737
 H         4.405624         1.784100        -0.460536
 H         4.188315        -0.775258        -1.962031
 H         5.390905        -0.400632        -0.627651
 H         3.746786        -2.086753         0.597391
 H         3.725821        -0.048569         1.984737
