19
Iteration:  4051
 C        -0.049840        -0.098652        -0.080551
 C         1.420043         0.109793         0.008785
 C         2.210998         1.142991        -0.873172
 C         3.659897         1.030485        -0.379590
 C         4.247955        -0.348313        -0.969077
 C         3.392031        -1.126892         0.040958
 O         1.938139        -1.207647        -0.252126
 C         3.393891         0.160667         0.962877
 O         1.957672         0.393144         1.394649
 H        -0.494909        -0.812833         0.545608
 H        -0.689997         0.733498         0.175682
 H        -0.157044        -0.466041        -1.112508
 H         2.068711         0.895744        -1.877646
 H         1.913727         2.078805        -0.595935
 H         4.356693         1.895999        -0.423363
 H         3.951257        -0.532311        -1.978253
 H         5.395591        -0.481573        -0.741104
 H         3.649167        -2.070135         0.482339
 H         4.092944         0.181270         1.810666
