19
Iteration:  3652charge 0 multiplicity 1
 C        -0.085042         0.104765        -0.120996
 C         1.527720         0.044793         0.017105
 C         2.166851         1.101139        -0.858545
 C         3.600063         0.977893        -0.385692
 C         4.130646        -0.358559        -0.981095
 C         3.468530        -1.040665         0.214487
 O         2.105863        -1.336955        -0.230271
 C         3.348390         0.261917         0.963886
 O         1.921701         0.302954         1.296525
 H        -0.589496        -0.611470         0.497841
 H        -0.502743         1.110729         0.185305
 H        -0.179059        -0.226478        -1.194081
 H         2.015159         0.963901        -1.967158
 H         1.746104         2.132853        -0.522153
 H         4.192831         1.843248        -0.610423
 H         3.762771        -0.744195        -2.028829
 H         5.197871        -0.651463        -0.916124
 H         3.764686        -2.061897         0.575064
 H         3.990564         0.515464         1.821335
