19
Iteration:  1125charge 0 multiplicity 1
 C        -0.073758         0.066726         0.016329
 C         1.424625         0.005365         0.016626
 C         2.138430         1.054584        -0.876672
 C         3.614072         0.914136        -0.386243
 C         4.348226        -0.334992        -0.863190
 C         3.364660        -1.082664         0.080197
 O         2.019299        -1.252485        -0.419442
 C         3.349033         0.252506         1.012686
 O         1.991864         0.420825         1.296284
 H        -0.459448        -0.703910         0.738049
 H        -0.307951         0.916662         0.502731
 H        -0.523935        -0.109589        -0.948750
 H         2.128177         0.575388        -1.937726
 H         1.486573         1.901112        -0.897158
 H         4.037061         1.866883        -0.378265
 H         4.273028        -0.572429        -1.925539
 H         5.342534        -0.440410        -0.388218
 H         3.560187        -2.187364         0.396958
 H         4.025934         0.381879         1.890939
