19
Iteration:   373charge 0 multiplicity 1
 C        -0.039194        -0.168732        -0.120289
 C         1.428161         0.142135         0.060903
 C         2.192039         1.173370        -0.841674
 C         3.645433         0.888396        -0.394234
 C         4.196293        -0.370736        -1.028495
 C         3.431094        -1.146556         0.089088
 O         2.018073        -1.163013        -0.258390
 C         3.342005         0.200623         1.047601
 O         1.964103         0.462594         1.355601
 H        -0.359534        -1.005433         0.437391
 H        -0.739038         0.717839         0.168389
 H        -0.280019        -0.517608        -1.101848
 H         2.112819         0.979875        -1.901673
 H         1.979313         2.228173        -0.560137
 H         4.210147         1.845469        -0.590992
 H         3.825248        -0.671481        -2.023544
 H         5.246494        -0.491030        -0.924358
 H         3.652252        -2.130696         0.336783
 H         4.010627         0.462637         1.941304
