19
Iteration:  1295
 C        -0.031605        -0.028416        -0.121768
 C         1.449146         0.082295         0.082760
 C         2.147068         1.076771        -0.847465
 C         3.608886         0.980039        -0.421510
 C         4.234987        -0.387906        -0.920892
 C         3.396475        -1.129970         0.089368
 O         1.999375        -1.208023        -0.319346
 C         3.341569         0.184997         0.986106
 O         2.001695         0.406541         1.364382
 H        -0.431298        -0.981333         0.271092
 H        -0.398733         0.905103         0.441325
 H        -0.303792         0.119687        -1.206172
 H         2.003214         0.891089        -1.896675
 H         1.722703         2.115749        -0.614820
 H         4.237079         1.923222        -0.386253
 H         4.051723        -0.439186        -2.039138
 H         5.280242        -0.550263        -0.756435
 H         3.848346        -2.009739         0.455725
 H         3.936440         0.340887         1.939309
