19
Iteration:  3943
 C        -0.074173        -0.099399        -0.100138
 C         1.393537         0.105530        -0.004528
 C         2.216905         1.160360        -0.800957
 C         3.655123         0.985374        -0.433659
 C         4.176802        -0.375894        -0.957332
 C         3.388025        -1.122100         0.118369
 O         2.020722        -1.185460        -0.247359
 C         3.396527         0.220107         1.022243
 O         2.011052         0.350822         1.302220
 H        -0.242236        -0.911953         0.525099
 H        -0.680637         0.783150         0.117756
 H        -0.221338        -0.409691        -1.185325
 H         1.899454         1.171156        -1.858348
 H         1.677163         2.211390        -0.485749
 H         4.286550         1.846235        -0.551041
 H         3.934604        -0.758470        -1.929361
 H         5.323618        -0.486012        -0.971403
 H         3.480673        -2.155366         0.434712
 H         3.926586         0.405124         1.986655
