19
Iteration:   108charge 0 multiplicity 1
 C        -0.125017         0.002722        -0.154999
 C         1.372353         0.081234         0.127486
 C         2.099636         1.075478        -0.840880
 C         3.616660         0.908603        -0.456910
 C         4.241107        -0.340190        -1.017736
 C         3.484977        -1.087292         0.132789
 O         2.075747        -1.406738        -0.176763
 C         3.381694         0.222113         1.003236
 O         2.016180         0.564881         1.341041
 H        -0.745553        -0.815082         0.238945
 H        -0.572216         1.001777         0.042199
 H        -0.085650        -0.032165        -1.258226
 H         1.963189         0.701755        -1.883829
 H         1.637363         2.076845        -0.918476
 H         4.114162         1.871320        -0.605439
 H         3.982673        -0.648752        -2.002201
 H         5.343334        -0.437463        -1.019738
 H         3.769964        -2.028877         0.488438
 H         3.991558         0.255550         1.872368
