19
Iteration:  3470
 C        -0.066207        -0.066563         0.074822
 C         1.410041         0.126215        -0.029063
 C         2.181212         1.174551        -0.890076
 C         3.606831         0.921349        -0.480000
 C         4.333326        -0.473823        -0.853130
 C         3.409051        -1.082276         0.121813
 O         2.090721        -1.246560        -0.396023
 C         3.260007         0.236949         1.004276
 O         1.932490         0.408249         1.283054
 H        -0.331338        -0.809107         0.818261
 H        -0.541152         0.935433         0.340206
 H        -0.530930        -0.268407        -0.893719
 H         1.902857         1.234851        -1.911700
 H         1.942771         2.152628        -0.518142
 H         4.237297         1.808141        -0.332662
 H         4.134379        -0.829128        -1.868089
 H         5.445574        -0.455738        -0.650936
 H         3.606951        -2.032350         0.639129
 H         3.874226         0.465308         1.877735
