19
Iteration:   644
 C         0.022683        -0.040527        -0.098966
 C         1.485174         0.088882         0.002377
 C         2.170095         1.161273        -0.922948
 C         3.623020         1.025268        -0.420203
 C         4.058757        -0.372669        -0.876396
 C         3.405902        -1.153779         0.111641
 O         2.054906        -1.231660        -0.181105
 C         3.353011         0.179262         1.006715
 O         1.970959         0.352101         1.270510
 H        -0.384168        -0.515716         0.759283
 H        -0.415577         1.065111        -0.165674
 H        -0.242737        -0.460181        -1.012648
 H         2.059604         0.987898        -1.952288
 H         1.701672         2.149913        -0.658536
 H         4.315792         1.774617        -0.669002
 H         3.772999        -0.523651        -1.975534
 H         5.134105        -0.529385        -0.796321
 H         4.046629        -1.989520         0.554701
 H         3.896291         0.285882         1.948517
