19
Iteration:   988
 C        -0.039067        -0.057642         0.094697
 C         1.415848         0.126520        -0.107104
 C         2.223931         1.135236        -1.010872
 C         3.632856         0.867440        -0.416494
 C         4.274972        -0.399411        -0.886595
 C         3.395009        -1.127247         0.148601
 O         2.055738        -1.139353        -0.299222
 C         3.261725         0.229412         1.053993
 O         1.907154         0.361456         1.247493
 H        -0.218163        -0.561499         1.104853
 H        -0.519650         0.928951         0.253393
 H        -0.351909        -0.695343        -0.698117
 H         2.063834         0.904992        -2.067660
 H         1.876868         2.108427        -0.684989
 H         4.237535         1.891242        -0.401736
 H         4.173781        -0.420552        -1.979716
 H         5.361659        -0.363047        -0.614136
 H         3.867123        -1.984009         0.531442
 H         3.837478         0.173399         1.947591
