19
Iteration:   132
 C        -0.032029        -0.084638        -0.003437
 C         1.467937         0.053691        -0.072430
 C         2.191118         1.122262        -0.929021
 C         3.634534         0.911471        -0.445746
 C         4.230521        -0.405211        -0.936574
 C         3.381674        -1.095722         0.182183
 O         1.997804        -1.219315        -0.201975
 C         3.310259         0.302180         0.927514
 O         1.982050         0.436238         1.322439
 H        -0.203161        -1.066385         0.541149
 H        -0.480372         0.686228         0.495815
 H        -0.471704        -0.189722        -1.027826
 H         2.005413         1.038094        -1.993679
 H         1.743088         2.069738        -0.645399
 H         4.182682         1.815388        -0.509117
 H         4.162682        -0.689652        -1.980683
 H         5.255466        -0.495739        -0.692700
 H         3.566057        -1.993648         0.588672
 H         4.075846         0.536283         1.713342
